@<TRIPOS>MOLECULE
CHEMBL1081852
   48    51     0     0     0
SMALL
USER_CHARGES

@<TRIPOS>ATOM
      1 C1         -0.0167    1.3781    0.0096 C.ar      1 <0>        -0.1413
      2 C2          1.1709    2.0855    0.0021 C.ar      1 <0>        -0.0582
      3 C3          2.3773    1.4107   -0.0130 C.ar      1 <0>        -0.1628
      4 C4          2.3960    0.0285   -0.0201 C.ar      1 <0>        -0.0559
      5 C5          1.2085   -0.6789   -0.0117 C.ar      1 <0>        -0.1023
      6 C6          0.0021   -0.0041    0.0020 C.ar      1 <0>        -0.0987
      7 C7         -1.2926   -0.7753    0.0107 C.3       1 <0>        -0.0994
      8 C8         -1.7450   -1.0285   -1.4288 C.3       1 <0>         0.0243
      9 H1         -0.9463   -1.5264   -1.9784 H         1 <0>         0.1551
     10 C9         -2.9907   -1.9168   -1.4231 C.3       1 <0>         0.1137
     11 N1         -3.4936   -2.0615   -2.7914 N.pl3     1 <0>        -0.7059
     12 C10        -4.6212   -2.8264   -3.0373 C.2       1 <0>         0.2808
     13 N2         -5.3661   -3.4847   -2.1731 N.2       1 <0>        -0.5621
     14 C11        -6.4188   -4.1742   -2.5639 C.2       1 <0>         0.0903
     15 C12        -6.6944   -4.1697   -3.9048 C.2       1 <0>        -0.1738
     16 S1         -5.3736   -3.1324   -4.5112 S.3       1 <0>         0.1384
     17 C13        -7.7868   -4.8352   -4.6454 C.ar      1 <0>         0.0128
     18 C14        -8.7313   -5.6018   -3.9578 C.ar      1 <0>        -0.0770
     19 C15        -9.7504   -6.2228   -4.6476 C.ar      1 <0>        -0.0888
     20 C16        -9.8394   -6.0867   -6.0256 C.ar      1 <0>         0.0787
     21 C17        -8.8999   -5.3223   -6.7194 C.ar      1 <0>         0.0470
     22 C18        -7.8782   -4.6934   -6.0298 C.ar      1 <0>        -0.0728
     23 O1         -9.2343   -5.3682   -8.0327 O.3       1 <0>        -0.2339
     24 C19       -10.3338   -6.1235   -8.1817 C.2       1 <0>         0.6400
     25 O2        -10.8847   -6.3602   -9.2396 O.2       1 <0>        -0.4733
     26 N3        -10.7324   -6.5797   -6.9779 N.am      1 <0>        -0.6461
     27 H2        -11.4995   -7.1476   -6.8050 H         1 <0>         0.4478
     28 N4         -2.0599    0.2523   -2.0756 N.4       1 <0>        -0.6402
     29 C20         3.6720    2.1819   -0.0222 C.3       1 <0>         0.5036
     30 F1          4.0857    2.4144    1.2938 F         1 <0>        -0.1688
     31 F2          4.6506    1.4423   -0.6949 F         1 <0>        -0.1714
     32 F3          3.4816    3.4050   -0.6742 F         1 <0>        -0.1728
     33 H3         -0.9591    1.9053    0.0259 H         1 <0>         0.1371
     34 H4          1.1563    3.1654    0.0076 H         1 <0>         0.1471
     35 H5          3.3385   -0.4987   -0.0326 H         1 <0>         0.1478
     36 H6          1.2231   -1.7588   -0.0179 H         1 <0>         0.1451
     37 H7         -1.1443   -1.7285    0.5180 H         1 <0>         0.1327
     38 H8         -2.0551   -0.1993    0.5352 H         1 <0>         0.1103
     39 H9         -2.7351   -2.8985   -1.0242 H         1 <0>         0.1173
     40 H10        -3.7596   -1.4603   -0.7997 H         1 <0>         0.1002
     41 H11        -3.0366   -1.6214   -3.5252 H         1 <0>         0.4107
     42 H12        -7.0337   -4.7165   -1.8610 H         1 <0>         0.1825
     43 H13        -8.6626   -5.7081   -2.8852 H         1 <0>         0.1464
     44 H14       -10.4796   -6.8156   -4.1154 H         1 <0>         0.1475
     45 H15        -7.1515   -4.0981   -6.5625 H         1 <0>         0.1403
     46 H16        -1.2384    0.8381   -2.0794 H         1 <0>         0.4380
     47 H17        -2.3583    0.0853   -3.0249 H         1 <0>         0.4323
     48 H18        -2.7994    0.7132   -1.5668 H         1 <0>         0.4377
@<TRIPOS>BOND
     1    1    6 ar
     2    1    2 ar
     3    1   33 1
     4    2    3 ar
     5    2   34 1
     6    3    4 ar
     7    3   29 1
     8    4    5 ar
     9    4   35 1
    10    5    6 ar
    11    5   36 1
    12    6    7 1
    13    7    8 1
    14    7   37 1
    15    7   38 1
    16    8    9 1
    17    8   10 1
    18    8   28 1
    19   10   11 1
    20   10   39 1
    21   10   40 1
    22   11   12 1
    23   11   41 1
    24   12   16 1
    25   12   13 2
    26   13   14 1
    27   14   15 2
    28   14   42 1
    29   15   16 1
    30   15   17 1
    31   17   22 ar
    32   17   18 ar
    33   18   19 ar
    34   18   43 1
    35   19   20 ar
    36   19   44 1
    37   20   26 1
    38   20   21 ar
    39   21   22 ar
    40   21   23 1
    41   22   45 1
    42   23   24 1
    43   24   25 2
    44   24   26 am
    45   26   27 1
    46   28   46 1
    47   28   47 1
    48   28   48 1
    49   29   30 1
    50   29   31 1
    51   29   32 1
@<TRIPOS>MOLECULE
CHEMBL469561
   46    49     0     0     0
SMALL
USER_CHARGES

@<TRIPOS>ATOM
      1 C1         -0.0167    1.3781    0.0096 C.ar      1 <0>        -0.0965
      2 C2          1.1709    2.0855    0.0021 C.ar      1 <0>        -0.1102
      3 C3          2.3773    1.4107   -0.0130 C.ar      1 <0>        -0.1093
      4 C4          2.3960    0.0285   -0.0201 C.ar      1 <0>        -0.1370
      5 C5          1.2084   -0.6789   -0.0117 C.ar      1 <0>        -0.1122
      6 C6          0.0021   -0.0041    0.0020 C.ar      1 <0>        -0.1089
      7 C7          3.7112   -0.7071   -0.0376 C.3       1 <0>        -0.0718
      8 C8          3.7911   -1.5793   -1.2921 C.3       1 <0>        -0.0075
      9 N1          3.8097   -0.7215   -2.4845 N.4       1 <0>        -0.6358
     10 C9          3.8172   -1.5918    1.2062 C.3       1 <0>         0.1329
     11 N2          5.1425   -2.2146    1.2509 N.pl3     1 <0>        -0.7125
     12 C10         5.4750   -3.0682    2.2981 C.2       1 <0>         0.1212
     13 C11         6.6465   -3.7367    2.5237 C.2       1 <0>        -0.2458
     14 C12         6.7533   -4.5353    3.6382 C.2       1 <0>        -0.0883
     15 C13         5.6798   -4.6337    4.4859 C.2       1 <0>        -0.1452
     16 S1          4.4851   -3.5667    3.6976 S.3       1 <0>         0.0816
     17 C14         5.5482   -5.4138    5.7275 C.ar      1 <0>         0.0810
     18 C15         5.8936   -6.7696    5.7703 C.ar      1 <0>        -0.1794
     19 C16         5.7548   -7.4631    6.9564 C.ar      1 <0>         0.1429
     20 N3          5.3053   -6.8826    8.0510 N.ar      1 <0>        -0.4950
     21 C17         4.9602   -5.6003    8.0781 C.ar      1 <0>         0.2901
     22 C18         5.0752   -4.8189    6.9159 C.ar      1 <0>        -0.1406
     23 C19         4.6301   -3.4752    7.2778 C.2       1 <0>        -0.1984
     24 C20         4.2914   -3.5136    8.5775 C.2       1 <0>         0.0703
     25 N4          4.4757   -4.7792    9.0679 N.pl3     1 <0>        -0.5806
     26 H1          4.3001   -5.0529    9.9818 H         1 <0>         0.4235
     27 H2         -0.9591    1.9053    0.0259 H         1 <0>         0.1330
     28 H3          1.1563    3.1654    0.0076 H         1 <0>         0.1330
     29 H4          3.3051    1.9634   -0.0196 H         1 <0>         0.1283
     30 H5          1.2231   -1.7588   -0.0176 H         1 <0>         0.1276
     31 H6         -0.9258   -0.5567    0.0082 H         1 <0>         0.1331
     32 H7          4.5299    0.0124   -0.0426 H         1 <0>         0.1115
     33 H8          4.7013   -2.1781   -1.2610 H         1 <0>         0.1390
     34 H9          2.9238   -2.2384   -1.3322 H         1 <0>         0.1403
     35 H10         2.9671   -0.1672   -2.5133 H         1 <0>         0.4361
     36 H11         4.6125   -0.1114   -2.4473 H         1 <0>         0.4353
     37 H12         3.6716   -0.9830    2.0986 H         1 <0>         0.0858
     38 H13         3.0524   -2.3674    1.1667 H         1 <0>         0.0782
     39 H14         5.7882   -2.0319    0.5505 H         1 <0>         0.4044
     40 H15         7.4746   -3.6394    1.8372 H         1 <0>         0.1299
     41 H16         7.6660   -5.0756    3.8420 H         1 <0>         0.1374
     42 H17         6.2639   -7.2675    4.8863 H         1 <0>         0.1414
     43 H18         6.0214   -8.5092    6.9879 H         1 <0>         0.1669
     44 H19         4.5827   -2.6156    6.6257 H         1 <0>         0.1483
     45 H20         3.9216   -2.6743    9.1478 H         1 <0>         0.1814
     46 H21         3.8624   -1.2967   -3.3118 H         1 <0>         0.4406
@<TRIPOS>BOND
     1    1    6 ar
     2    1    2 ar
     3    1   27 1
     4    2    3 ar
     5    2   28 1
     6    3    4 ar
     7    3   29 1
     8    4    5 ar
     9    4    7 1
    10    5    6 ar
    11    5   30 1
    12    6   31 1
    13    7    8 1
    14    7   10 1
    15    7   32 1
    16    8    9 1
    17    8   33 1
    18    8   34 1
    19    9   35 1
    20    9   36 1
    21    9   46 1
    22   10   11 1
    23   10   37 1
    24   10   38 1
    25   11   12 1
    26   11   39 1
    27   12   16 1
    28   12   13 2
    29   13   14 1
    30   13   40 1
    31   14   15 2
    32   14   41 1
    33   15   16 1
    34   15   17 1
    35   17   22 ar
    36   17   18 ar
    37   18   19 ar
    38   18   42 1
    39   19   20 ar
    40   19   43 1
    41   20   21 ar
    42   21   25 1
    43   21   22 ar
    44   22   23 1
    45   23   24 2
    46   23   44 1
    47   24   25 1
    48   24   45 1
    49   25   26 1
@<TRIPOS>MOLECULE
CHEMBL469561
   46    49     0     0     0
SMALL
USER_CHARGES

@<TRIPOS>ATOM
      1 C1          0.3953    1.9598   -0.0075 C.ar      1 <0>        -0.0966
      2 C2          1.6844    2.4586   -0.0255 C.ar      1 <0>        -0.1101
      3 C3          2.7610    1.5915   -0.0325 C.ar      1 <0>        -0.1092
      4 C4          2.5484    0.2256   -0.0211 C.ar      1 <0>        -0.1368
      5 C5          1.2593   -0.2732   -0.0022 C.ar      1 <0>        -0.1130
      6 C6          0.1828    0.5939    0.0034 C.ar      1 <0>        -0.1088
      7 C7          3.7220   -0.7197   -0.0298 C.3       1 <0>        -0.0718
      8 C8          3.6826   -1.5933    1.2257 C.3       1 <0>        -0.0070
      9 N1          3.8489   -0.7482    2.4157 N.4       1 <0>        -0.6357
     10 C9          3.6512   -1.6093   -1.2725 C.3       1 <0>         0.1328
     11 N2          4.8579   -2.4363   -1.3505 N.pl3     1 <0>        -0.7125
     12 C10         4.9732   -3.4071   -2.3404 C.2       1 <0>         0.1213
     13 C11         6.0026   -4.2757   -2.5774 C.2       1 <0>        -0.2459
     14 C12         5.8990   -5.1608   -3.6248 C.2       1 <0>        -0.0882
     15 C13         4.7654   -5.1417   -4.3965 C.2       1 <0>        -0.1453
     16 S1          3.8120   -3.8452   -3.6237 S.3       1 <0>         0.0812
     17 C14         4.4217   -5.9775   -5.5587 C.ar      1 <0>         0.0809
     18 C15         5.3188   -6.1454   -6.6200 C.ar      1 <0>        -0.1788
     19 C16         4.9553   -6.9388   -7.6902 C.ar      1 <0>         0.1435
     20 N3          3.7851   -7.5432   -7.7401 N.ar      1 <0>        -0.4951
     21 C17         2.8889   -7.4255   -6.7669 C.ar      1 <0>         0.2900
     22 C18         3.1794   -6.6411   -5.6378 C.ar      1 <0>        -0.1407
     23 C19         2.0094   -6.7247   -4.7667 C.2       1 <0>        -0.1987
     24 C20         1.1200   -7.5206   -5.3838 C.2       1 <0>         0.0699
     25 N4          1.6281   -7.9410   -6.5843 N.pl3     1 <0>        -0.5807
     26 H1          1.1699   -8.5250   -7.2087 H         1 <0>         0.4235
     27 H2         -0.4457    2.6373    0.0025 H         1 <0>         0.1330
     28 H3          1.8505    3.5257   -0.0345 H         1 <0>         0.1330
     29 H4          3.7681    1.9811   -0.0473 H         1 <0>         0.1283
     30 H5          1.0933   -1.3403    0.0064 H         1 <0>         0.1275
     31 H6         -0.8244    0.2042    0.0178 H         1 <0>         0.1331
     32 H7          4.6495   -0.1473   -0.0451 H         1 <0>         0.1113
     33 H8          2.7246   -2.1105    1.2784 H         1 <0>         0.1400
     34 H9          4.4890   -2.3254    1.1844 H         1 <0>         0.1394
     35 H10         4.6924   -0.2019    2.3250 H         1 <0>         0.4351
     36 H11         3.0559   -0.1305    2.5031 H         1 <0>         0.4363
     37 H12         2.7734   -2.2524   -1.2094 H         1 <0>         0.0794
     38 H13         3.5807   -0.9846   -2.1630 H         1 <0>         0.0846
     39 H14         5.5766   -2.3071   -0.7119 H         1 <0>         0.4051
     40 H15         6.8831   -4.2664   -1.9521 H         1 <0>         0.1300
     41 H16         6.6962   -5.8581   -3.8361 H         1 <0>         0.1374
     42 H17         6.2834   -5.6601   -6.6022 H         1 <0>         0.1419
     43 H18         5.6483   -7.0671   -8.5086 H         1 <0>         0.1672
     44 H19         1.8836   -6.2399   -3.8099 H         1 <0>         0.1476
     45 H20         0.1471   -7.7831   -4.9952 H         1 <0>         0.1809
     46 H21         3.9127   -1.3317    3.2364 H         1 <0>         0.4405
@<TRIPOS>BOND
     1    1    6 ar
     2    1    2 ar
     3    1   27 1
     4    2    3 ar
     5    2   28 1
     6    3    4 ar
     7    3   29 1
     8    4    5 ar
     9    4    7 1
    10    5    6 ar
    11    5   30 1
    12    6   31 1
    13    7    8 1
    14    7   10 1
    15    7   32 1
    16    8    9 1
    17    8   33 1
    18    8   34 1
    19    9   35 1
    20    9   36 1
    21    9   46 1
    22   10   11 1
    23   10   37 1
    24   10   38 1
    25   11   12 1
    26   11   39 1
    27   12   16 1
    28   12   13 2
    29   13   14 1
    30   13   40 1
    31   14   15 2
    32   14   41 1
    33   15   16 1
    34   15   17 1
    35   17   22 ar
    36   17   18 ar
    37   18   19 ar
    38   18   42 1
    39   19   20 ar
    40   19   43 1
    41   20   21 ar
    42   21   25 1
    43   21   22 ar
    44   22   23 1
    45   23   24 2
    46   23   44 1
    47   24   25 1
    48   24   45 1
    49   25   26 1
@<TRIPOS>MOLECULE
CHEMBL576386
   62    67     0     0     0
SMALL
USER_CHARGES

@<TRIPOS>ATOM
      1 C1         -0.0165    1.3620    0.0095 C.ar      1 <0>        -0.1190
      2 C2          1.1697    2.0834    0.0021 C.ar      1 <0>        -0.0931
      3 C3          2.3856    1.4362   -0.0134 C.ar      1 <0>        -0.1110
      4 C4          2.4281    0.0456   -0.0212 C.ar      1 <0>         0.0986
      5 C5          1.2234   -0.6807   -0.0132 C.ar      1 <0>        -0.1171
      6 C6          0.0021   -0.0041    0.0020 C.ar      1 <0>        -0.1141
      7 C7          1.6036   -2.0953   -0.0245 C.2       1 <0>        -0.2378
      8 C8          2.9451   -2.1410   -0.0380 C.2       1 <0>         0.1040
      9 N1          3.4551   -0.8713   -0.0363 N.pl3     1 <0>        -0.5844
     10 H1          4.3995   -0.6501   -0.0442 H         1 <0>         0.4265
     11 C9          0.6664   -3.2754   -0.0210 C.3       1 <0>        -0.0555
     12 C10         0.2361   -3.5891   -1.4554 C.3       1 <0>         0.0435
     13 H2          1.1200   -3.7379   -2.0756 H         1 <0>         0.1530
     14 C11        -0.6144   -4.8610   -1.4661 C.3       1 <0>         0.0263
     15 O1         -0.9189   -5.2190   -2.8156 O.3       1 <0>        -0.3225
     16 C12        -1.6731   -6.3340   -3.0030 C.ar      1 <0>         0.0703
     17 C13        -2.0063   -6.7503   -4.2858 C.ar      1 <0>        -0.0977
     18 C14        -2.7829   -7.9025   -4.4264 C.ar      1 <0>        -0.0348
     19 C15        -3.1908   -8.5858   -3.2820 C.ar      1 <0>         0.0855
     20 N2         -2.8519   -8.1548   -2.0846 N.ar      1 <0>        -0.4376
     21 C16        -2.1151   -7.0742   -1.9153 C.ar      1 <0>         0.0198
     22 C17        -3.1680   -8.3915   -5.7731 C.ar      1 <0>        -0.0817
     23 C18        -2.7522   -7.7062   -6.9137 C.ar      1 <0>        -0.0604
     24 C19        -3.1096   -8.1591   -8.1638 C.ar      1 <0>        -0.1351
     25 C20        -3.8906   -9.3070   -8.2996 C.ar      1 <0>         0.1670
     26 C21        -4.3012   -9.9855   -7.1577 C.ar      1 <0>        -0.1323
     27 C22        -3.9438   -9.5432   -5.9064 C.ar      1 <0>        -0.0354
     28 C23        -5.1170  -11.1654   -7.6346 C.3       1 <0>        -0.0348
     29 C24        -5.0956  -11.0414   -9.1432 C.2       1 <0>         0.5354
     30 O2         -5.6318  -11.7876   -9.9349 O.2       1 <0>        -0.4753
     31 N3         -4.3713   -9.9496   -9.4405 N.am      1 <0>        -0.6596
     32 C25        -6.5295  -11.0745   -7.1172 C.ar      1 <0>        -0.1258
     33 C26        -7.0453  -12.0729   -6.3048 C.ar      1 <0>        -0.0579
     34 C27        -8.3496  -11.9473   -5.8523 C.ar      1 <0>        -0.1661
     35 C28        -9.0874  -10.8389   -6.2233 C.ar      1 <0>         0.1053
     36 N4         -8.5642   -9.9088   -6.9979 N.ar      1 <0>        -0.4787
     37 C29        -7.3251   -9.9923   -7.4418 C.ar      1 <0>         0.1154
     38 N5         -0.5518   -2.4687   -1.9863 N.4       1 <0>        -0.6363
     39 H3         -0.9613    1.8849    0.0259 H         1 <0>         0.1313
     40 H4          1.1388    3.1630    0.0081 H         1 <0>         0.1353
     41 H5          3.3028    2.0064   -0.0198 H         1 <0>         0.1294
     42 H6         -0.9246   -0.5587    0.0082 H         1 <0>         0.1149
     43 H7          3.5346   -3.0459   -0.0490 H         1 <0>         0.1791
     44 H8          1.1742   -4.1414    0.4036 H         1 <0>         0.1217
     45 H9         -0.2127   -3.0396    0.5787 H         1 <0>         0.0998
     46 H10        -0.0618   -5.6715   -0.9910 H         1 <0>         0.1140
     47 H11        -1.5405   -4.6834   -0.9195 H         1 <0>         0.0921
     48 H12        -1.6739   -6.1971   -5.1517 H         1 <0>         0.1485
     49 H13        -3.7916   -9.4781   -3.3784 H         1 <0>         0.1659
     50 H14        -1.8556   -6.7582   -0.9157 H         1 <0>         0.1579
     51 H15        -2.1477   -6.8166   -6.8164 H         1 <0>         0.1349
     52 H16        -2.7842   -7.6231   -9.0431 H         1 <0>         0.1366
     53 H17        -4.2668  -10.0831   -5.0285 H         1 <0>         0.1356
     54 H18        -4.6541  -12.1013   -7.3217 H         1 <0>         0.1385
     55 H19        -4.2017   -9.6435  -10.3451 H         1 <0>         0.4201
     56 H20        -6.4452  -12.9282   -6.0314 H         1 <0>         0.1407
     57 H21        -8.7839  -12.7061   -5.2182 H         1 <0>         0.1426
     58 H22       -10.1042  -10.7335   -5.8750 H         1 <0>         0.1611
     59 H23        -6.9293   -9.2081   -8.0700 H         1 <0>         0.1460
     60 H24        -1.3700   -2.3311   -1.4122 H         1 <0>         0.4300
     61 H25         0.0090   -1.6300   -1.9793 H         1 <0>         0.4382
     62 H26        -0.8356   -2.6756   -2.9322 H         1 <0>         0.4392
@<TRIPOS>BOND
     1    1    6 ar
     2    1    2 ar
     3    1   39 1
     4    2    3 ar
     5    2   40 1
     6    3    4 ar
     7    3   41 1
     8    4    9 1
     9    4    5 ar
    10    5    6 ar
    11    5    7 1
    12    6   42 1
    13    7    8 2
    14    7   11 1
    15    8    9 1
    16    8   43 1
    17    9   10 1
    18   11   12 1
    19   11   44 1
    20   11   45 1
    21   12   13 1
    22   12   14 1
    23   12   38 1
    24   14   15 1
    25   14   46 1
    26   14   47 1
    27   15   16 1
    28   16   21 ar
    29   16   17 ar
    30   17   18 ar
    31   17   48 1
    32   18   19 ar
    33   18   22 1
    34   19   20 ar
    35   19   49 1
    36   20   21 ar
    37   21   50 1
    38   22   27 ar
    39   22   23 ar
    40   23   24 ar
    41   23   51 1
    42   24   25 ar
    43   24   52 1
    44   25   31 1
    45   25   26 ar
    46   26   27 ar
    47   26   28 1
    48   27   53 1
    49   28   29 1
    50   28   32 1
    51   28   54 1
    52   29   30 2
    53   29   31 am
    54   31   55 1
    55   32   37 ar
    56   32   33 ar
    57   33   34 ar
    58   33   56 1
    59   34   35 ar
    60   34   57 1
    61   35   36 ar
    62   35   58 1
    63   36   37 ar
    64   37   59 1
    65   38   60 1
    66   38   61 1
    67   38   62 1
@<TRIPOS>MOLECULE
CHEMBL576386
   62    67     0     0     0
SMALL
USER_CHARGES

@<TRIPOS>ATOM
      1 C1         -0.0165    1.3620    0.0095 C.ar      1 <0>        -0.1190
      2 C2          1.1697    2.0834    0.0021 C.ar      1 <0>        -0.0932
      3 C3          2.3856    1.4362   -0.0134 C.ar      1 <0>        -0.1109
      4 C4          2.4281    0.0456   -0.0212 C.ar      1 <0>         0.0986
      5 C5          1.2234   -0.6807   -0.0132 C.ar      1 <0>        -0.1171
      6 C6          0.0021   -0.0041    0.0020 C.ar      1 <0>        -0.1142
      7 C7          1.6036   -2.0953   -0.0245 C.2       1 <0>        -0.2379
      8 C8          2.9451   -2.1410   -0.0380 C.2       1 <0>         0.1041
      9 N1          3.4551   -0.8713   -0.0363 N.pl3     1 <0>        -0.5843
     10 H1          4.3995   -0.6501   -0.0442 H         1 <0>         0.4266
     11 C9          0.6664   -3.2754   -0.0210 C.3       1 <0>        -0.0555
     12 C10         0.2361   -3.5891   -1.4554 C.3       1 <0>         0.0434
     13 H2          1.1200   -3.7379   -2.0756 H         1 <0>         0.1530
     14 C11        -0.6144   -4.8610   -1.4661 C.3       1 <0>         0.0263
     15 O1         -0.9189   -5.2190   -2.8156 O.3       1 <0>        -0.3225
     16 C12        -1.6731   -6.3340   -3.0030 C.ar      1 <0>         0.0703
     17 C13        -2.0063   -6.7503   -4.2858 C.ar      1 <0>        -0.0977
     18 C14        -2.7829   -7.9025   -4.4264 C.ar      1 <0>        -0.0348
     19 C15        -3.1908   -8.5858   -3.2820 C.ar      1 <0>         0.0855
     20 N2         -2.8519   -8.1548   -2.0846 N.ar      1 <0>        -0.4375
     21 C16        -2.1151   -7.0742   -1.9153 C.ar      1 <0>         0.0198
     22 C17        -3.1680   -8.3915   -5.7731 C.ar      1 <0>        -0.0817
     23 C18        -2.7522   -7.7062   -6.9137 C.ar      1 <0>        -0.0604
     24 C19        -3.1096   -8.1591   -8.1638 C.ar      1 <0>        -0.1351
     25 C20        -3.8906   -9.3070   -8.2996 C.ar      1 <0>         0.1670
     26 C21        -4.3012   -9.9855   -7.1577 C.ar      1 <0>        -0.1323
     27 C22        -3.9438   -9.5432   -5.9064 C.ar      1 <0>        -0.0353
     28 C23        -5.1170  -11.1654   -7.6346 C.3       1 <0>        -0.0345
     29 C24        -5.0956  -11.0414   -9.1432 C.2       1 <0>         0.5354
     30 O2         -5.6318  -11.7876   -9.9349 O.2       1 <0>        -0.4753
     31 N3         -4.3713   -9.9496   -9.4405 N.am      1 <0>        -0.6597
     32 C25        -4.4770  -12.4593   -7.2020 C.ar      1 <0>        -0.1266
     33 C26        -5.1678  -13.3478   -6.3918 C.ar      1 <0>        -0.0577
     34 C27        -4.5394  -14.5258   -6.0186 C.ar      1 <0>        -0.1663
     35 C28        -3.2543  -14.7738   -6.4633 C.ar      1 <0>         0.1057
     36 N4         -2.6275  -13.9056   -7.2326 N.ar      1 <0>        -0.4785
     37 C29        -3.1965  -12.7780   -7.6122 C.ar      1 <0>         0.1157
     38 N5         -0.5518   -2.4687   -1.9863 N.4       1 <0>        -0.6362
     39 H3         -0.9613    1.8849    0.0259 H         1 <0>         0.1312
     40 H4          1.1388    3.1630    0.0081 H         1 <0>         0.1353
     41 H5          3.3028    2.0064   -0.0198 H         1 <0>         0.1295
     42 H6         -0.9246   -0.5587    0.0082 H         1 <0>         0.1148
     43 H7          3.5346   -3.0459   -0.0490 H         1 <0>         0.1792
     44 H8          1.1742   -4.1414    0.4036 H         1 <0>         0.1218
     45 H9         -0.2127   -3.0396    0.5787 H         1 <0>         0.0998
     46 H10        -0.0618   -5.6715   -0.9910 H         1 <0>         0.1140
     47 H11        -1.5405   -4.6834   -0.9195 H         1 <0>         0.0921
     48 H12        -1.6739   -6.1971   -5.1517 H         1 <0>         0.1485
     49 H13        -3.7916   -9.4781   -3.3784 H         1 <0>         0.1659
     50 H14        -1.8556   -6.7582   -0.9157 H         1 <0>         0.1579
     51 H15        -2.1477   -6.8166   -6.8164 H         1 <0>         0.1349
     52 H16        -2.7842   -7.6231   -9.0431 H         1 <0>         0.1366
     53 H17        -4.2668  -10.0831   -5.0285 H         1 <0>         0.1355
     54 H18        -6.1386  -11.0996   -7.2604 H         1 <0>         0.1384
     55 H19        -4.2017   -9.6435  -10.3451 H         1 <0>         0.4201
     56 H20        -6.1713  -13.1271   -6.0592 H         1 <0>         0.1406
     57 H21        -5.0474  -15.2405   -5.3881 H         1 <0>         0.1425
     58 H22        -2.7578  -15.6892   -6.1770 H         1 <0>         0.1612
     59 H23        -2.6536  -12.0935   -8.2472 H         1 <0>         0.1460
     60 H24        -1.3700   -2.3311   -1.4122 H         1 <0>         0.4299
     61 H25         0.0090   -1.6300   -1.9793 H         1 <0>         0.4382
     62 H26        -0.8356   -2.6756   -2.9322 H         1 <0>         0.4391
@<TRIPOS>BOND
     1    1    6 ar
     2    1    2 ar
     3    1   39 1
     4    2    3 ar
     5    2   40 1
     6    3    4 ar
     7    3   41 1
     8    4    9 1
     9    4    5 ar
    10    5    6 ar
    11    5    7 1
    12    6   42 1
    13    7    8 2
    14    7   11 1
    15    8    9 1
    16    8   43 1
    17    9   10 1
    18   11   12 1
    19   11   44 1
    20   11   45 1
    21   12   13 1
    22   12   14 1
    23   12   38 1
    24   14   15 1
    25   14   46 1
    26   14   47 1
    27   15   16 1
    28   16   21 ar
    29   16   17 ar
    30   17   18 ar
    31   17   48 1
    32   18   19 ar
    33   18   22 1
    34   19   20 ar
    35   19   49 1
    36   20   21 ar
    37   21   50 1
    38   22   27 ar
    39   22   23 ar
    40   23   24 ar
    41   23   51 1
    42   24   25 ar
    43   24   52 1
    44   25   31 1
    45   25   26 ar
    46   26   27 ar
    47   26   28 1
    48   27   53 1
    49   28   29 1
    50   28   32 1
    51   28   54 1
    52   29   30 2
    53   29   31 am
    54   31   55 1
    55   32   37 ar
    56   32   33 ar
    57   33   34 ar
    58   33   56 1
    59   34   35 ar
    60   34   57 1
    61   35   36 ar
    62   35   58 1
    63   36   37 ar
    64   37   59 1
    65   38   60 1
    66   38   61 1
    67   38   62 1
@<TRIPOS>MOLECULE
CHEMBL577134
   51    55     0     0     0
SMALL
USER_CHARGES

@<TRIPOS>ATOM
      1 C1         -0.0165    1.3620    0.0095 C.ar      1 <0>        -0.1189
      2 C2          1.1697    2.0834    0.0021 C.ar      1 <0>        -0.0931
      3 C3          2.3856    1.4362   -0.0134 C.ar      1 <0>        -0.1109
      4 C4          2.4281    0.0456   -0.0212 C.ar      1 <0>         0.0986
      5 C5          1.2234   -0.6807   -0.0132 C.ar      1 <0>        -0.1171
      6 C6          0.0021   -0.0041    0.0020 C.ar      1 <0>        -0.1142
      7 C7          1.6036   -2.0953   -0.0245 C.2       1 <0>        -0.2380
      8 C8          2.9451   -2.1410   -0.0380 C.2       1 <0>         0.1041
      9 N1          3.4551   -0.8713   -0.0363 N.pl3     1 <0>        -0.5843
     10 H1          4.3995   -0.6501   -0.0442 H         1 <0>         0.4266
     11 C9          0.6664   -3.2754   -0.0210 C.3       1 <0>        -0.0555
     12 C10         0.2361   -3.5891   -1.4554 C.3       1 <0>         0.0435
     13 H2          1.1200   -3.7379   -2.0756 H         1 <0>         0.1530
     14 C11        -0.6144   -4.8610   -1.4661 C.3       1 <0>         0.0261
     15 O1         -0.9189   -5.2190   -2.8156 O.3       1 <0>        -0.3223
     16 C12        -1.6731   -6.3340   -3.0030 C.ar      1 <0>         0.0696
     17 C13        -2.0064   -6.7503   -4.2858 C.ar      1 <0>        -0.0938
     18 C14        -2.7833   -7.9021   -4.4264 C.ar      1 <0>        -0.0387
     19 C15        -3.1916   -8.5851   -3.2821 C.ar      1 <0>         0.0891
     20 N2         -2.8523   -8.1545   -2.0846 N.ar      1 <0>        -0.4372
     21 C16        -2.1151   -7.0742   -1.9153 C.ar      1 <0>         0.0237
     22 C17        -3.1686   -8.3911   -5.7733 C.ar      1 <0>        -0.0617
     23 C18        -2.7560   -7.7111   -6.9199 C.ar      1 <0>        -0.0648
     24 C19        -3.1059   -8.1526   -8.1706 C.ar      1 <0>        -0.1149
     25 C20        -3.8922   -9.3062   -8.3392 C.ar      1 <0>         0.1442
     26 C21        -4.2934   -9.9715   -7.1701 C.ar      1 <0>        -0.1314
     27 C22        -3.9448   -9.5419   -5.9150 C.ar      1 <0>        -0.0207
     28 S1         -5.2426  -11.3398   -7.7891 S.3       1 <0>        -0.0190
     29 C23        -5.0747  -10.9852   -9.5309 C.2       1 <0>         0.5395
     30 O2         -5.5272  -11.5978  -10.4804 O.2       1 <0>        -0.4319
     31 N3         -4.3207   -9.8687   -9.5293 N.am      1 <0>        -0.6557
     32 H3         -4.0755   -9.4543  -10.3713 H         1 <0>         0.4161
     33 N4         -0.5518   -2.4687   -1.9863 N.4       1 <0>        -0.6363
     34 H4         -0.9613    1.8849    0.0259 H         1 <0>         0.1313
     35 H5          1.1388    3.1630    0.0081 H         1 <0>         0.1353
     36 H6          3.3028    2.0064   -0.0198 H         1 <0>         0.1295
     37 H7         -0.9246   -0.5587    0.0082 H         1 <0>         0.1149
     38 H8          3.5346   -3.0459   -0.0490 H         1 <0>         0.1792
     39 H9          1.1742   -4.1414    0.4036 H         1 <0>         0.1218
     40 H10        -0.2127   -3.0396    0.5787 H         1 <0>         0.0999
     41 H11        -0.0618   -5.6715   -0.9910 H         1 <0>         0.1144
     42 H12        -1.5405   -4.6834   -0.9195 H         1 <0>         0.0925
     43 H13        -1.6736   -6.1972   -5.1517 H         1 <0>         0.1494
     44 H14        -3.7931   -9.4770   -3.3785 H         1 <0>         0.1680
     45 H15        -1.8556   -6.7583   -0.9157 H         1 <0>         0.1590
     46 H16        -2.1511   -6.8219   -6.8208 H         1 <0>         0.1382
     47 H17        -2.7724   -7.6052   -9.0398 H         1 <0>         0.1396
     48 H18        -4.2722  -10.0880   -5.0427 H         1 <0>         0.1464
     49 H19         0.0090   -1.6300   -1.9793 H         1 <0>         0.4383
     50 H20        -0.8356   -2.6756   -2.9322 H         1 <0>         0.4391
     51 H21        -1.3700   -2.3311   -1.4122 H         1 <0>         0.4300
@<TRIPOS>BOND
     1    1    6 ar
     2    1    2 ar
     3    1   34 1
     4    2    3 ar
     5    2   35 1
     6    3    4 ar
     7    3   36 1
     8    4    9 1
     9    4    5 ar
    10    5    6 ar
    11    5    7 1
    12    6   37 1
    13    7    8 2
    14    7   11 1
    15    8    9 1
    16    8   38 1
    17    9   10 1
    18   11   12 1
    19   11   39 1
    20   11   40 1
    21   12   13 1
    22   12   14 1
    23   12   33 1
    24   14   15 1
    25   14   41 1
    26   14   42 1
    27   15   16 1
    28   16   21 ar
    29   16   17 ar
    30   17   18 ar
    31   17   43 1
    32   18   19 ar
    33   18   22 1
    34   19   20 ar
    35   19   44 1
    36   20   21 ar
    37   21   45 1
    38   22   27 ar
    39   22   23 ar
    40   23   24 ar
    41   23   46 1
    42   24   25 ar
    43   24   47 1
    44   25   31 1
    45   25   26 ar
    46   26   27 ar
    47   26   28 1
    48   27   48 1
    49   28   29 1
    50   29   30 2
    51   29   31 am
    52   31   32 1
    53   33   49 1
    54   33   50 1
    55   33   51 1
@<TRIPOS>MOLECULE
CHEMBL575824
   51    55     0     0     0
SMALL
USER_CHARGES

@<TRIPOS>ATOM
      1 C1         -0.0165    1.3620    0.0095 C.ar      1 <0>        -0.1189
      2 C2          1.1697    2.0834    0.0021 C.ar      1 <0>        -0.0931
      3 C3          2.3856    1.4362   -0.0134 C.ar      1 <0>        -0.1109
      4 C4          2.4281    0.0456   -0.0212 C.ar      1 <0>         0.0985
      5 C5          1.2234   -0.6807   -0.0132 C.ar      1 <0>        -0.1171
      6 C6          0.0021   -0.0041    0.0020 C.ar      1 <0>        -0.1142
      7 C7          1.6036   -2.0953   -0.0245 C.2       1 <0>        -0.2381
      8 C8          2.9451   -2.1410   -0.0380 C.2       1 <0>         0.1042
      9 N1          3.4551   -0.8713   -0.0363 N.pl3     1 <0>        -0.5843
     10 H1          4.3995   -0.6501   -0.0442 H         1 <0>         0.4266
     11 C9          0.6664   -3.2754   -0.0210 C.3       1 <0>        -0.0556
     12 C10         0.2361   -3.5891   -1.4554 C.3       1 <0>         0.0435
     13 H2          1.1200   -3.7379   -2.0756 H         1 <0>         0.1531
     14 C11        -0.6144   -4.8610   -1.4661 C.3       1 <0>         0.0260
     15 O1         -0.9189   -5.2190   -2.8156 O.3       1 <0>        -0.3221
     16 C12        -1.6731   -6.3340   -3.0030 C.ar      1 <0>         0.0691
     17 C13        -2.0063   -6.7503   -4.2858 C.ar      1 <0>        -0.0918
     18 C14        -2.7828   -7.9025   -4.4264 C.ar      1 <0>        -0.0422
     19 C15        -3.1908   -8.5857   -3.2821 C.ar      1 <0>         0.0903
     20 N2         -2.8516   -8.1550   -2.0846 N.ar      1 <0>        -0.4374
     21 C16        -2.1151   -7.0742   -1.9153 C.ar      1 <0>         0.0254
     22 C17        -3.1680   -8.3915   -5.7732 C.ar      1 <0>        -0.0465
     23 C18        -2.7492   -7.7019   -6.9113 C.ar      1 <0>        -0.0807
     24 C19        -3.1063   -8.1543   -8.1637 C.ar      1 <0>        -0.0967
     25 C20        -3.8828   -9.2969   -8.2928 C.ar      1 <0>         0.0857
     26 C21        -4.3047   -9.9917   -7.1581 C.ar      1 <0>         0.0431
     27 C22        -3.9425   -9.5416   -5.9005 C.ar      1 <0>        -0.0603
     28 O2         -5.0375  -11.0501   -7.5837 O.3       1 <0>        -0.2317
     29 C23        -5.0873  -11.0407   -8.9250 C.2       1 <0>         0.6400
     30 O3         -5.6689  -11.8585   -9.6117 O.2       1 <0>        -0.4708
     31 N3         -4.3933   -9.9845   -9.3930 N.am      1 <0>        -0.6467
     32 H3         -4.2715   -9.7460  -10.3252 H         1 <0>         0.4476
     33 N4         -0.5518   -2.4687   -1.9863 N.4       1 <0>        -0.6363
     34 H4         -0.9613    1.8849    0.0259 H         1 <0>         0.1313
     35 H5          1.1388    3.1630    0.0081 H         1 <0>         0.1353
     36 H6          3.3028    2.0064   -0.0198 H         1 <0>         0.1295
     37 H7         -0.9246   -0.5587    0.0082 H         1 <0>         0.1149
     38 H8          3.5346   -3.0459   -0.0490 H         1 <0>         0.1792
     39 H9          1.1742   -4.1414    0.4036 H         1 <0>         0.1219
     40 H10        -0.2127   -3.0396    0.5787 H         1 <0>         0.0999
     41 H11        -0.0618   -5.6715   -0.9910 H         1 <0>         0.1145
     42 H12        -1.5405   -4.6834   -0.9195 H         1 <0>         0.0926
     43 H13        -1.6739   -6.1971   -5.1517 H         1 <0>         0.1505
     44 H14        -3.7919   -9.4778   -3.3785 H         1 <0>         0.1690
     45 H15        -1.8556   -6.7582   -0.9157 H         1 <0>         0.1593
     46 H16        -2.1448   -6.8125   -6.8111 H         1 <0>         0.1425
     47 H17        -2.7821   -7.6193   -9.0440 H         1 <0>         0.1450
     48 H18        -4.2632  -10.0786   -5.0201 H         1 <0>         0.1496
     49 H19        -0.8356   -2.6756   -2.9322 H         1 <0>         0.4390
     50 H20        -1.3700   -2.3311   -1.4122 H         1 <0>         0.4301
     51 H21         0.0090   -1.6300   -1.9793 H         1 <0>         0.4383
@<TRIPOS>BOND
     1    1    6 ar
     2    1    2 ar
     3    1   34 1
     4    2    3 ar
     5    2   35 1
     6    3    4 ar
     7    3   36 1
     8    4    9 1
     9    4    5 ar
    10    5    6 ar
    11    5    7 1
    12    6   37 1
    13    7    8 2
    14    7   11 1
    15    8    9 1
    16    8   38 1
    17    9   10 1
    18   11   12 1
    19   11   39 1
    20   11   40 1
    21   12   13 1
    22   12   14 1
    23   12   33 1
    24   14   15 1
    25   14   41 1
    26   14   42 1
    27   15   16 1
    28   16   21 ar
    29   16   17 ar
    30   17   18 ar
    31   17   43 1
    32   18   19 ar
    33   18   22 1
    34   19   20 ar
    35   19   44 1
    36   20   21 ar
    37   21   45 1
    38   22   27 ar
    39   22   23 ar
    40   23   24 ar
    41   23   46 1
    42   24   25 ar
    43   24   47 1
    44   25   31 1
    45   25   26 ar
    46   26   27 ar
    47   26   28 1
    48   27   48 1
    49   28   29 1
    50   29   30 2
    51   29   31 am
    52   31   32 1
    53   33   49 1
    54   33   50 1
    55   33   51 1
@<TRIPOS>MOLECULE
CHEMBL577379
   63    68     0     0     0
SMALL
USER_CHARGES

@<TRIPOS>ATOM
      1 C1         -0.0167    1.3781    0.0096 C.ar      1 <0>        -0.1114
      2 C2          1.1709    2.0855    0.0021 C.ar      1 <0>        -0.1146
      3 C3          2.3773    1.4107   -0.0130 C.ar      1 <0>        -0.1019
      4 C4          2.3960    0.0285   -0.0201 C.ar      1 <0>        -0.0732
      5 C5          1.2084   -0.6789   -0.0117 C.ar      1 <0>        -0.1058
      6 C6          0.0021   -0.0041    0.0020 C.ar      1 <0>        -0.1158
      7 C7          3.7112   -0.7071   -0.0376 C.3       1 <0>        -0.0405
      8 C8          3.7755   -1.6492   -1.2180 C.ar      1 <0>        -0.1282
      9 C9          3.7254   -1.4471   -2.5766 C.ar      1 <0>        -0.0350
     10 C10         3.8105   -2.5367   -3.4435 C.ar      1 <0>        -0.0831
     11 C11         3.9458   -3.8224   -2.9216 C.ar      1 <0>        -0.0620
     12 C12         3.9952   -4.0163   -1.5595 C.ar      1 <0>        -0.1372
     13 C13         3.9103   -2.9284   -0.6903 C.ar      1 <0>         0.1662
     14 N1          3.9362   -2.8741    0.7032 N.am      1 <0>        -0.6609
     15 C14         3.8256   -1.6178    1.1663 C.2       1 <0>         0.5365
     16 O1          3.8188   -1.2772    2.3303 O.2       1 <0>        -0.4771
     17 C15         3.7569   -2.3287   -4.9115 C.ar      1 <0>        -0.0337
     18 C16         3.8358   -3.4159   -5.7852 C.ar      1 <0>        -0.0985
     19 C17         3.7810   -3.1678   -7.1505 C.ar      1 <0>         0.0698
     20 C18         3.6508   -1.8592   -7.5958 C.ar      1 <0>         0.0196
     21 N2          3.5796   -0.8565   -6.7427 N.ar      1 <0>        -0.4374
     22 C19         3.6213   -1.0465   -5.4398 C.ar      1 <0>         0.0852
     23 O2          3.8543   -4.1931   -8.0397 O.3       1 <0>        -0.3228
     24 C20         3.7907   -3.8548   -9.4267 C.3       1 <0>         0.0264
     25 C21         3.8880   -5.1294  -10.2674 C.3       1 <0>         0.0434
     26 H1          4.7903   -5.6767   -9.9945 H         1 <0>         0.1529
     27 C22         3.9454   -4.7587  -11.7507 C.3       1 <0>        -0.0555
     28 C23         4.1646   -6.0035  -12.5715 C.2       1 <0>        -0.2376
     29 C24         5.3436   -6.4771  -13.0045 C.2       1 <0>         0.1040
     30 N3          5.1502   -7.6277  -13.7194 N.pl3     1 <0>        -0.5846
     31 H2          5.8539   -8.1520  -14.1325 H         1 <0>         0.4265
     32 C25         3.8077   -7.9302  -13.7651 C.ar      1 <0>         0.0987
     33 C26         3.1320   -6.9296  -13.0426 C.ar      1 <0>        -0.1171
     34 C27         1.7430   -6.9810  -12.9140 C.ar      1 <0>        -0.1141
     35 C28         1.0460   -8.0067  -13.4883 C.ar      1 <0>        -0.1191
     36 C29         1.7082   -8.9984  -14.1985 C.ar      1 <0>        -0.0932
     37 C30         3.0778   -8.9620  -14.3457 C.ar      1 <0>        -0.1110
     38 N4          2.7104   -5.9715  -10.0184 N.4       1 <0>        -0.6363
     39 H3         -0.9591    1.9053    0.0259 H         1 <0>         0.1261
     40 H4          1.1563    3.1654    0.0076 H         1 <0>         0.1283
     41 H5          3.3051    1.9634   -0.0196 H         1 <0>         0.1274
     42 H6          1.2231   -1.7588   -0.0176 H         1 <0>         0.1151
     43 H7         -0.9258   -0.5567    0.0082 H         1 <0>         0.1247
     44 H8          4.5419   -0.0019   -0.0633 H         1 <0>         0.1358
     45 H9          3.6201   -0.4476   -2.9719 H         1 <0>         0.1363
     46 H10         4.0118   -4.6695   -3.5883 H         1 <0>         0.1339
     47 H11         4.0998   -5.0150   -1.1621 H         1 <0>         0.1352
     48 H12         4.0236   -3.6543    1.2729 H         1 <0>         0.4185
     49 H13         3.9372   -4.4231   -5.4087 H         1 <0>         0.1481
     50 H14         3.6076   -1.6598   -8.6564 H         1 <0>         0.1576
     51 H15         3.5549   -0.1987   -4.7740 H         1 <0>         0.1666
     52 H16         2.8457   -3.3532   -9.6353 H         1 <0>         0.0920
     53 H17         4.6177   -3.1904   -9.6769 H         1 <0>         0.1140
     54 H18         3.0062   -4.2903  -12.0448 H         1 <0>         0.0999
     55 H19         4.7671   -4.0628  -11.9198 H         1 <0>         0.1218
     56 H20         6.3029   -6.0178  -12.8167 H         1 <0>         0.1791
     57 H21         1.2210   -6.2132  -12.3622 H         1 <0>         0.1149
     58 H22        -0.0287   -8.0461  -13.3885 H         1 <0>         0.1312
     59 H23         1.1436   -9.8029  -14.6461 H         1 <0>         0.1353
     60 H24         3.5840   -9.7390  -14.8992 H         1 <0>         0.1294
     61 H25         2.6725   -6.2159   -9.0402 H         1 <0>         0.4391
     62 H26         1.8751   -5.4648  -10.2710 H         1 <0>         0.4300
     63 H27         2.7746   -6.8120  -10.5728 H         1 <0>         0.4381
@<TRIPOS>BOND
     1    1    6 ar
     2    1    2 ar
     3    1   39 1
     4    2    3 ar
     5    2   40 1
     6    3    4 ar
     7    3   41 1
     8    4    5 ar
     9    4    7 1
    10    5    6 ar
    11    5   42 1
    12    6   43 1
    13    7   15 1
    14    7    8 1
    15    7   44 1
    16    8   13 ar
    17    8    9 ar
    18    9   10 ar
    19    9   45 1
    20   10   11 ar
    21   10   17 1
    22   11   12 ar
    23   11   46 1
    24   12   13 ar
    25   12   47 1
    26   13   14 1
    27   14   15 am
    28   14   48 1
    29   15   16 2
    30   17   22 ar
    31   17   18 ar
    32   18   19 ar
    33   18   49 1
    34   19   20 ar
    35   19   23 1
    36   20   21 ar
    37   20   50 1
    38   21   22 ar
    39   22   51 1
    40   23   24 1
    41   24   25 1
    42   24   52 1
    43   24   53 1
    44   25   26 1
    45   25   27 1
    46   25   38 1
    47   27   28 1
    48   27   54 1
    49   27   55 1
    50   28   33 1
    51   28   29 2
    52   29   30 1
    53   29   56 1
    54   30   31 1
    55   30   32 1
    56   32   37 ar
    57   32   33 ar
    58   33   34 ar
    59   34   35 ar
    60   34   57 1
    61   35   36 ar
    62   35   58 1
    63   36   37 ar
    64   36   59 1
    65   37   60 1
    66   38   61 1
    67   38   62 1
    68   38   63 1
@<TRIPOS>MOLECULE
CHEMBL577379
   63    68     0     0     0
SMALL
USER_CHARGES

@<TRIPOS>ATOM
      1 C1         -0.0167    1.3781    0.0096 C.ar      1 <0>        -0.1112
      2 C2          1.1709    2.0855    0.0021 C.ar      1 <0>        -0.1147
      3 C3          2.3773    1.4107   -0.0130 C.ar      1 <0>        -0.1021
      4 C4          2.3960    0.0285   -0.0201 C.ar      1 <0>        -0.0736
      5 C5          1.2084   -0.6789   -0.0117 C.ar      1 <0>        -0.1058
      6 C6          0.0021   -0.0041    0.0020 C.ar      1 <0>        -0.1155
      7 C7          3.7112   -0.7071   -0.0376 C.3       1 <0>        -0.0402
      8 C8          3.8001   -1.6609    1.1318 C.ar      1 <0>        -0.1282
      9 C9          3.7794   -1.4724    2.4931 C.ar      1 <0>        -0.0350
     10 C10         3.8833   -2.5705    3.3471 C.ar      1 <0>        -0.0831
     11 C11         4.0075   -3.8508    2.8097 C.ar      1 <0>        -0.0620
     12 C12         4.0275   -4.0312    1.4450 C.ar      1 <0>        -0.1372
     13 C13         3.9237   -2.9348    0.5886 C.ar      1 <0>         0.1662
     14 N1          3.9204   -2.8666   -0.8045 N.am      1 <0>        -0.6609
     15 C14         3.8002   -1.6057   -1.2526 C.2       1 <0>         0.5365
     16 O1          3.7690   -1.2536   -2.4128 O.2       1 <0>        -0.4771
     17 C15         3.8623   -2.3770    4.8179 C.ar      1 <0>        -0.0337
     18 C16         3.9718   -3.4716    5.6789 C.ar      1 <0>        -0.0985
     19 C17         3.9467   -3.2370    7.0475 C.ar      1 <0>         0.0698
     20 C18         3.8149   -1.9341    7.5084 C.ar      1 <0>         0.0196
     21 N2          3.7135   -0.9241    6.6670 N.ar      1 <0>        -0.4374
     22 C19         3.7389   -1.1000    5.3617 C.ar      1 <0>         0.0852
     23 O2          4.0495   -4.2701    7.9247 O.3       1 <0>        -0.3228
     24 C20         4.0153   -3.9457    9.3160 C.3       1 <0>         0.0264
     25 C21         4.1431   -5.2273   10.1418 C.3       1 <0>         0.0434
     26 H1          3.3682   -5.9323    9.8407 H         1 <0>         0.1529
     27 C22         3.9818   -4.8955   11.6266 C.3       1 <0>        -0.0556
     28 C23         3.9848   -6.1708   12.4296 C.2       1 <0>        -0.2376
     29 C24         2.9079   -6.8661   12.8279 C.2       1 <0>         0.1040
     30 N3          3.3004   -7.9689   13.5365 N.pl3     1 <0>        -0.5846
     31 H2          2.7000   -8.6233   13.9266 H         1 <0>         0.4265
     32 C25         4.6745   -8.0112   13.6134 C.ar      1 <0>         0.0987
     33 C26         5.1638   -6.8901   12.9180 C.ar      1 <0>        -0.1171
     34 C27         6.5397   -6.6746   12.8242 C.ar      1 <0>        -0.1141
     35 C28         7.4059   -7.5570   13.4063 C.ar      1 <0>        -0.1190
     36 C29         6.9284   -8.6665   14.0899 C.ar      1 <0>        -0.0932
     37 C30         5.5740   -8.8935   14.2025 C.ar      1 <0>        -0.1109
     38 N4          5.4651   -5.8264    9.9147 N.4       1 <0>        -0.6363
     39 H3         -0.9591    1.9053    0.0259 H         1 <0>         0.1261
     40 H4          1.1563    3.1654    0.0076 H         1 <0>         0.1283
     41 H5          3.3051    1.9634   -0.0196 H         1 <0>         0.1272
     42 H6          1.2231   -1.7588   -0.0176 H         1 <0>         0.1151
     43 H7         -0.9258   -0.5567    0.0082 H         1 <0>         0.1249
     44 H8          4.5423   -0.0021   -0.0222 H         1 <0>         0.1357
     45 H9          3.6832   -0.4768    2.9005 H         1 <0>         0.1362
     46 H10         4.0887   -4.7044    3.4664 H         1 <0>         0.1339
     47 H11         4.1244   -5.0259    1.0355 H         1 <0>         0.1352
     48 H12         3.9964   -3.6410   -1.3836 H         1 <0>         0.4185
     49 H13         4.0729   -4.4742    5.2903 H         1 <0>         0.1481
     50 H14         3.7947   -1.7452    8.5716 H         1 <0>         0.1576
     51 H15         3.6580   -0.2457    4.7060 H         1 <0>         0.1666
     52 H16         4.8423   -3.2765    9.5534 H         1 <0>         0.0921
     53 H17         3.0713   -3.4544    9.5514 H         1 <0>         0.1139
     54 H18         4.8076   -4.2612   11.9490 H         1 <0>         0.0999
     55 H19         3.0389   -4.3710   11.7813 H         1 <0>         0.1218
     56 H20         1.8833   -6.5950   12.6201 H         1 <0>         0.1791
     57 H21         6.9185   -5.8138   12.2933 H         1 <0>         0.1149
     58 H22         8.4704   -7.3898   13.3335 H         1 <0>         0.1312
     59 H23         7.6254   -9.3553   14.5440 H         1 <0>         0.1353
     60 H24         5.2124   -9.7604   14.7355 H         1 <0>         0.1294
     61 H25         5.5715   -6.0452    8.9355 H         1 <0>         0.4391
     62 H26         6.1824   -5.1738   10.1934 H         1 <0>         0.4300
     63 H27         5.5493   -6.6716   10.4593 H         1 <0>         0.4381
@<TRIPOS>BOND
     1    1    6 ar
     2    1    2 ar
     3    1   39 1
     4    2    3 ar
     5    2   40 1
     6    3    4 ar
     7    3   41 1
     8    4    5 ar
     9    4    7 1
    10    5    6 ar
    11    5   42 1
    12    6   43 1
    13    7   15 1
    14    7    8 1
    15    7   44 1
    16    8   13 ar
    17    8    9 ar
    18    9   10 ar
    19    9   45 1
    20   10   11 ar
    21   10   17 1
    22   11   12 ar
    23   11   46 1
    24   12   13 ar
    25   12   47 1
    26   13   14 1
    27   14   15 am
    28   14   48 1
    29   15   16 2
    30   17   22 ar
    31   17   18 ar
    32   18   19 ar
    33   18   49 1
    34   19   20 ar
    35   19   23 1
    36   20   21 ar
    37   20   50 1
    38   21   22 ar
    39   22   51 1
    40   23   24 1
    41   24   25 1
    42   24   52 1
    43   24   53 1
    44   25   26 1
    45   25   27 1
    46   25   38 1
    47   27   28 1
    48   27   54 1
    49   27   55 1
    50   28   33 1
    51   28   29 2
    52   29   30 1
    53   29   56 1
    54   30   31 1
    55   30   32 1
    56   32   37 ar
    57   32   33 ar
    58   33   34 ar
    59   34   35 ar
    60   34   57 1
    61   35   36 ar
    62   35   58 1
    63   36   37 ar
    64   36   59 1
    65   37   60 1
    66   38   61 1
    67   38   62 1
    68   38   63 1
@<TRIPOS>MOLECULE
CHEMBL573096
   67    73     0     0     0
SMALL
USER_CHARGES

@<TRIPOS>ATOM
      1 C1         -0.0165    1.3620    0.0095 C.ar      1 <0>        -0.1191
      2 C2          1.1697    2.0834    0.0021 C.ar      1 <0>        -0.0932
      3 C3          2.3856    1.4362   -0.0134 C.ar      1 <0>        -0.1109
      4 C4          2.4281    0.0456   -0.0212 C.ar      1 <0>         0.0986
      5 C5          1.2234   -0.6807   -0.0132 C.ar      1 <0>        -0.1171
      6 C6          0.0021   -0.0041    0.0020 C.ar      1 <0>        -0.1141
      7 C7          1.6036   -2.0953   -0.0245 C.2       1 <0>        -0.2377
      8 C8          2.9451   -2.1410   -0.0380 C.2       1 <0>         0.1041
      9 N1          3.4551   -0.8713   -0.0363 N.pl3     1 <0>        -0.5844
     10 H1          4.3995   -0.6501   -0.0442 H         1 <0>         0.4266
     11 C9          0.6664   -3.2754   -0.0210 C.3       1 <0>        -0.0555
     12 C10         0.2361   -3.5891   -1.4554 C.3       1 <0>         0.0435
     13 H2          1.1200   -3.7379   -2.0756 H         1 <0>         0.1530
     14 C11        -0.6144   -4.8610   -1.4661 C.3       1 <0>         0.0264
     15 O1         -0.9189   -5.2190   -2.8156 O.3       1 <0>        -0.3229
     16 C12        -1.6731   -6.3340   -3.0030 C.ar      1 <0>         0.0694
     17 C13        -2.0063   -6.7503   -4.2858 C.ar      1 <0>        -0.0990
     18 C14        -2.7829   -7.9025   -4.4264 C.ar      1 <0>        -0.0331
     19 C15        -3.1908   -8.5858   -3.2820 C.ar      1 <0>         0.0856
     20 N2         -2.8519   -8.1548   -2.0846 N.ar      1 <0>        -0.4376
     21 C16        -2.1151   -7.0742   -1.9153 C.ar      1 <0>         0.0184
     22 C17        -3.1680   -8.3915   -5.7731 C.ar      1 <0>        -0.0847
     23 C18        -2.7522   -7.7062   -6.9137 C.ar      1 <0>        -0.0635
     24 C19        -3.1096   -8.1591   -8.1638 C.ar      1 <0>        -0.1385
     25 C20        -3.8906   -9.3070   -8.2996 C.ar      1 <0>         0.1648
     26 C21        -4.3012   -9.9855   -7.1577 C.ar      1 <0>        -0.1260
     27 C22        -3.9438   -9.5432   -5.9064 C.ar      1 <0>        -0.0336
     28 C23        -5.1170  -11.1654   -7.6346 C.3       1 <0>        -0.0009
     29 C24        -5.0956  -11.0414   -9.1432 C.2       1 <0>         0.5336
     30 O2         -5.6318  -11.7876   -9.9349 O.2       1 <0>        -0.4773
     31 N3         -4.3713   -9.9496   -9.4405 N.am      1 <0>        -0.6625
     32 C25        -6.5295  -11.0745   -7.1172 C.2       1 <0>        -0.1607
     33 C26        -7.4065  -10.0874   -7.3592 C.2       1 <0>         0.0750
     34 N4         -8.5893  -10.3477   -6.7224 N.pl3     1 <0>        -0.5895
     35 H3         -9.3738   -9.7778   -6.7494 H         1 <0>         0.4191
     36 C27        -8.5000  -11.5389   -6.0376 C.ar      1 <0>         0.0972
     37 C28        -7.2079  -12.0496   -6.2600 C.ar      1 <0>        -0.0924
     38 C29        -6.8310  -13.2649   -5.6860 C.ar      1 <0>        -0.0734
     39 C30        -7.7216  -13.9551   -4.9127 C.ar      1 <0>        -0.1389
     40 C31        -8.9986  -13.4577   -4.6936 C.ar      1 <0>        -0.0951
     41 C32        -9.3885  -12.2556   -5.2429 C.ar      1 <0>        -0.1275
     42 N5         -0.5518   -2.4687   -1.9863 N.4       1 <0>        -0.6362
     43 H4         -0.9613    1.8849    0.0259 H         1 <0>         0.1311
     44 H5          1.1388    3.1630    0.0081 H         1 <0>         0.1352
     45 H6          3.3028    2.0064   -0.0198 H         1 <0>         0.1294
     46 H7         -0.9246   -0.5587    0.0082 H         1 <0>         0.1148
     47 H8          3.5346   -3.0459   -0.0490 H         1 <0>         0.1792
     48 H9          1.1742   -4.1414    0.4036 H         1 <0>         0.1218
     49 H10        -0.2127   -3.0396    0.5787 H         1 <0>         0.0997
     50 H11        -0.0618   -5.6715   -0.9910 H         1 <0>         0.1139
     51 H12        -1.5405   -4.6834   -0.9195 H         1 <0>         0.0918
     52 H13        -1.6739   -6.1971   -5.1517 H         1 <0>         0.1478
     53 H14        -3.7916   -9.4781   -3.3784 H         1 <0>         0.1670
     54 H15        -1.8556   -6.7582   -0.9157 H         1 <0>         0.1572
     55 H16        -2.1477   -6.8166   -6.8164 H         1 <0>         0.1326
     56 H17        -2.7842   -7.6231   -9.0431 H         1 <0>         0.1340
     57 H18        -4.2668  -10.0831   -5.0285 H         1 <0>         0.1359
     58 H19        -4.6541  -12.1013   -7.3217 H         1 <0>         0.1337
     59 H20        -4.2017   -9.6435  -10.3451 H         1 <0>         0.4171
     60 H21        -7.2078   -9.2166   -7.9664 H         1 <0>         0.1638
     61 H22        -5.8391  -13.6584   -5.8528 H         1 <0>         0.1220
     62 H23        -7.4295  -14.8953   -4.4688 H         1 <0>         0.1253
     63 H24        -9.6915  -14.0150   -4.0807 H         1 <0>         0.1278
     64 H25       -10.3848  -11.8775   -5.0676 H         1 <0>         0.1218
     65 H26         0.0090   -1.6300   -1.9793 H         1 <0>         0.4380
     66 H27        -0.8356   -2.6756   -2.9322 H         1 <0>         0.4391
     67 H28        -1.3700   -2.3311   -1.4122 H         1 <0>         0.4298
@<TRIPOS>BOND
     1    1    6 ar
     2    1    2 ar
     3    1   43 1
     4    2    3 ar
     5    2   44 1
     6    3    4 ar
     7    3   45 1
     8    4    9 1
     9    4    5 ar
    10    5    6 ar
    11    5    7 1
    12    6   46 1
    13    7    8 2
    14    7   11 1
    15    8    9 1
    16    8   47 1
    17    9   10 1
    18   11   12 1
    19   11   48 1
    20   11   49 1
    21   12   13 1
    22   12   14 1
    23   12   42 1
    24   14   15 1
    25   14   50 1
    26   14   51 1
    27   15   16 1
    28   16   21 ar
    29   16   17 ar
    30   17   18 ar
    31   17   52 1
    32   18   19 ar
    33   18   22 1
    34   19   20 ar
    35   19   53 1
    36   20   21 ar
    37   21   54 1
    38   22   27 ar
    39   22   23 ar
    40   23   24 ar
    41   23   55 1
    42   24   25 ar
    43   24   56 1
    44   25   31 1
    45   25   26 ar
    46   26   27 ar
    47   26   28 1
    48   27   57 1
    49   28   29 1
    50   28   32 1
    51   28   58 1
    52   29   30 2
    53   29   31 am
    54   31   59 1
    55   32   37 1
    56   32   33 2
    57   33   34 1
    58   33   60 1
    59   34   35 1
    60   34   36 1
    61   36   41 ar
    62   36   37 ar
    63   37   38 ar
    64   38   39 ar
    65   38   61 1
    66   39   40 ar
    67   39   62 1
    68   40   41 ar
    69   40   63 1
    70   41   64 1
    71   42   65 1
    72   42   66 1
    73   42   67 1
@<TRIPOS>MOLECULE
CHEMBL573096
   67    73     0     0     0
SMALL
USER_CHARGES

@<TRIPOS>ATOM
      1 C1         -0.0165    1.3620    0.0095 C.ar      1 <0>        -0.1190
      2 C2          1.1697    2.0834    0.0021 C.ar      1 <0>        -0.0931
      3 C3          2.3856    1.4362   -0.0134 C.ar      1 <0>        -0.1110
      4 C4          2.4281    0.0456   -0.0212 C.ar      1 <0>         0.0986
      5 C5          1.2234   -0.6807   -0.0132 C.ar      1 <0>        -0.1171
      6 C6          0.0021   -0.0041    0.0020 C.ar      1 <0>        -0.1140
      7 C7          1.6036   -2.0953   -0.0245 C.2       1 <0>        -0.2376
      8 C8          2.9451   -2.1410   -0.0380 C.2       1 <0>         0.1038
      9 N1          3.4551   -0.8713   -0.0363 N.pl3     1 <0>        -0.5844
     10 H1          4.3995   -0.6501   -0.0442 H         1 <0>         0.4265
     11 C9          0.6664   -3.2754   -0.0210 C.3       1 <0>        -0.0556
     12 C10         0.2361   -3.5891   -1.4554 C.3       1 <0>         0.0435
     13 H2          1.1200   -3.7379   -2.0756 H         1 <0>         0.1528
     14 C11        -0.6144   -4.8610   -1.4661 C.3       1 <0>         0.0264
     15 O1         -0.9189   -5.2190   -2.8156 O.3       1 <0>        -0.3229
     16 C12        -1.6731   -6.3340   -3.0030 C.ar      1 <0>         0.0694
     17 C13        -2.0063   -6.7503   -4.2858 C.ar      1 <0>        -0.0990
     18 C14        -2.7829   -7.9025   -4.4264 C.ar      1 <0>        -0.0331
     19 C15        -3.1908   -8.5858   -3.2820 C.ar      1 <0>         0.0856
     20 N2         -2.8519   -8.1548   -2.0846 N.ar      1 <0>        -0.4376
     21 C16        -2.1151   -7.0742   -1.9153 C.ar      1 <0>         0.0184
     22 C17        -3.1680   -8.3915   -5.7731 C.ar      1 <0>        -0.0848
     23 C18        -2.7522   -7.7062   -6.9137 C.ar      1 <0>        -0.0635
     24 C19        -3.1096   -8.1591   -8.1638 C.ar      1 <0>        -0.1385
     25 C20        -3.8906   -9.3070   -8.2996 C.ar      1 <0>         0.1649
     26 C21        -4.3012   -9.9855   -7.1577 C.ar      1 <0>        -0.1263
     27 C22        -3.9438   -9.5432   -5.9064 C.ar      1 <0>        -0.0336
     28 C23        -5.1170  -11.1654   -7.6346 C.3       1 <0>        -0.0006
     29 C24        -5.0956  -11.0414   -9.1432 C.2       1 <0>         0.5337
     30 O2         -5.6318  -11.7876   -9.9349 O.2       1 <0>        -0.4773
     31 N3         -4.3713   -9.9496   -9.4405 N.am      1 <0>        -0.6625
     32 C25        -4.4770  -12.4593   -7.2020 C.2       1 <0>        -0.1614
     33 C26        -3.2453  -12.8868   -7.5213 C.2       1 <0>         0.0755
     34 N4         -3.0109  -14.1062   -6.9465 N.pl3     1 <0>        -0.5893
     35 H3         -2.1898  -14.6151   -7.0344 H         1 <0>         0.4193
     36 C27        -4.1142  -14.5033   -6.2248 C.ar      1 <0>         0.0973
     37 C28        -5.0787  -13.4862   -6.3479 C.ar      1 <0>        -0.0924
     38 C29        -6.3126  -13.6151   -5.7080 C.ar      1 <0>        -0.0736
     39 C30        -6.5763  -14.7288   -4.9612 C.ar      1 <0>        -0.1390
     40 C31        -5.6269  -15.7330   -4.8332 C.ar      1 <0>        -0.0953
     41 C32        -4.4060  -15.6304   -5.4639 C.ar      1 <0>        -0.1271
     42 N5         -0.5518   -2.4687   -1.9863 N.4       1 <0>        -0.6362
     43 H4         -0.9613    1.8849    0.0259 H         1 <0>         0.1313
     44 H5          1.1388    3.1630    0.0081 H         1 <0>         0.1353
     45 H6          3.3028    2.0064   -0.0198 H         1 <0>         0.1294
     46 H7         -0.9246   -0.5587    0.0082 H         1 <0>         0.1149
     47 H8          3.5346   -3.0459   -0.0490 H         1 <0>         0.1791
     48 H9          1.1742   -4.1414    0.4036 H         1 <0>         0.1217
     49 H10        -0.2127   -3.0396    0.5787 H         1 <0>         0.0999
     50 H11        -0.0618   -5.6715   -0.9910 H         1 <0>         0.1137
     51 H12        -1.5405   -4.6834   -0.9195 H         1 <0>         0.0920
     52 H13        -1.6739   -6.1971   -5.1517 H         1 <0>         0.1478
     53 H14        -3.7916   -9.4781   -3.3784 H         1 <0>         0.1670
     54 H15        -1.8556   -6.7582   -0.9157 H         1 <0>         0.1572
     55 H16        -2.1477   -6.8166   -6.8164 H         1 <0>         0.1326
     56 H17        -2.7842   -7.6231   -9.0431 H         1 <0>         0.1340
     57 H18        -4.2668  -10.0831   -5.0285 H         1 <0>         0.1359
     58 H19        -6.1386  -11.0996   -7.2604 H         1 <0>         0.1336
     59 H20        -4.2017   -9.6435  -10.3451 H         1 <0>         0.4170
     60 H21        -2.5433  -12.3482   -8.1406 H         1 <0>         0.1639
     61 H22        -7.0559  -12.8374   -5.8025 H         1 <0>         0.1219
     62 H23        -7.5311  -14.8281   -4.4663 H         1 <0>         0.1252
     63 H24        -5.8498  -16.6069   -4.2390 H         1 <0>         0.1278
     64 H25        -3.6733  -16.4167   -5.3573 H         1 <0>         0.1219
     65 H26         0.0090   -1.6300   -1.9793 H         1 <0>         0.4380
     66 H27        -0.8356   -2.6756   -2.9322 H         1 <0>         0.4392
     67 H28        -1.3700   -2.3311   -1.4122 H         1 <0>         0.4300
@<TRIPOS>BOND
     1    1    6 ar
     2    1    2 ar
     3    1   43 1
     4    2    3 ar
     5    2   44 1
     6    3    4 ar
     7    3   45 1
     8    4    9 1
     9    4    5 ar
    10    5    6 ar
    11    5    7 1
    12    6   46 1
    13    7    8 2
    14    7   11 1
    15    8    9 1
    16    8   47 1
    17    9   10 1
    18   11   12 1
    19   11   48 1
    20   11   49 1
    21   12   13 1
    22   12   14 1
    23   12   42 1
    24   14   15 1
    25   14   50 1
    26   14   51 1
    27   15   16 1
    28   16   21 ar
    29   16   17 ar
    30   17   18 ar
    31   17   52 1
    32   18   19 ar
    33   18   22 1
    34   19   20 ar
    35   19   53 1
    36   20   21 ar
    37   21   54 1
    38   22   27 ar
    39   22   23 ar
    40   23   24 ar
    41   23   55 1
    42   24   25 ar
    43   24   56 1
    44   25   31 1
    45   25   26 ar
    46   26   27 ar
    47   26   28 1
    48   27   57 1
    49   28   29 1
    50   28   32 1
    51   28   58 1
    52   29   30 2
    53   29   31 am
    54   31   59 1
    55   32   37 1
    56   32   33 2
    57   33   34 1
    58   33   60 1
    59   34   35 1
    60   34   36 1
    61   36   41 ar
    62   36   37 ar
    63   37   38 ar
    64   38   39 ar
    65   38   61 1
    66   39   40 ar
    67   39   62 1
    68   40   41 ar
    69   40   63 1
    70   41   64 1
    71   42   65 1
    72   42   66 1
    73   42   67 1
@<TRIPOS>MOLECULE
CHEMBL573326
   60    65     0     0     0
SMALL
USER_CHARGES

@<TRIPOS>ATOM
      1 C1         -0.0165    1.3620    0.0095 C.ar      1 <0>        -0.1190
      2 C2          1.1697    2.0834    0.0021 C.ar      1 <0>        -0.0931
      3 C3          2.3856    1.4362   -0.0134 C.ar      1 <0>        -0.1110
      4 C4          2.4281    0.0456   -0.0212 C.ar      1 <0>         0.0986
      5 C5          1.2234   -0.6807   -0.0132 C.ar      1 <0>        -0.1171
      6 C6          0.0021   -0.0041    0.0020 C.ar      1 <0>        -0.1141
      7 C7          1.6036   -2.0953   -0.0245 C.2       1 <0>        -0.2378
      8 C8          2.9451   -2.1410   -0.0380 C.2       1 <0>         0.1040
      9 N1          3.4551   -0.8713   -0.0363 N.pl3     1 <0>        -0.5844
     10 H1          4.3995   -0.6501   -0.0442 H         1 <0>         0.4265
     11 C9          0.6664   -3.2754   -0.0210 C.3       1 <0>        -0.0555
     12 C10         0.2361   -3.5891   -1.4554 C.3       1 <0>         0.0435
     13 H2          1.1200   -3.7379   -2.0756 H         1 <0>         0.1530
     14 C11        -0.6144   -4.8610   -1.4661 C.3       1 <0>         0.0263
     15 O1         -0.9189   -5.2190   -2.8156 O.3       1 <0>        -0.3226
     16 C12        -1.6731   -6.3340   -3.0030 C.ar      1 <0>         0.0701
     17 C13        -2.0063   -6.7503   -4.2858 C.ar      1 <0>        -0.0980
     18 C14        -2.7829   -7.9025   -4.4264 C.ar      1 <0>        -0.0342
     19 C15        -3.1908   -8.5858   -3.2820 C.ar      1 <0>         0.0856
     20 N2         -2.8519   -8.1548   -2.0846 N.ar      1 <0>        -0.4374
     21 C16        -2.1151   -7.0742   -1.9153 C.ar      1 <0>         0.0195
     22 C17        -3.1680   -8.3915   -5.7731 C.ar      1 <0>        -0.0835
     23 C18        -2.7522   -7.7062   -6.9137 C.ar      1 <0>        -0.0587
     24 C19        -3.1096   -8.1591   -8.1638 C.ar      1 <0>        -0.1365
     25 C20        -3.8906   -9.3070   -8.2996 C.ar      1 <0>         0.1722
     26 C21        -4.3012   -9.9855   -7.1577 C.ar      1 <0>        -0.1375
     27 C22        -3.9438   -9.5432   -5.9064 C.ar      1 <0>        -0.0318
     28 C23        -5.1170  -11.1654   -7.6346 C.3       1 <0>         0.0052
     29 C24        -5.0956  -11.0414   -9.1432 C.2       1 <0>         0.5363
     30 O2         -5.6318  -11.7876   -9.9349 O.2       1 <0>        -0.4726
     31 N3         -4.3713   -9.9496   -9.4405 N.am      1 <0>        -0.6576
     32 C25        -6.5295  -11.0745   -7.1172 C.2       1 <0>        -0.0108
     33 C26        -7.1369  -11.9766   -6.3257 C.2       1 <0>        -0.1792
     34 C27        -8.4449  -11.4964   -6.0861 C.2       1 <0>        -0.2120
     35 C28        -8.5585  -10.3295   -6.7455 C.2       1 <0>        -0.0270
     36 O3         -7.3934  -10.0761   -7.3635 O.3       1 <0>        -0.1720
     37 N4         -0.5518   -2.4687   -1.9863 N.4       1 <0>        -0.6363
     38 H3         -0.9613    1.8849    0.0259 H         1 <0>         0.1312
     39 H4          1.1388    3.1630    0.0081 H         1 <0>         0.1353
     40 H5          3.3028    2.0064   -0.0198 H         1 <0>         0.1294
     41 H6         -0.9246   -0.5587    0.0082 H         1 <0>         0.1149
     42 H7          3.5346   -3.0459   -0.0490 H         1 <0>         0.1792
     43 H8          1.1742   -4.1414    0.4036 H         1 <0>         0.1218
     44 H9         -0.2127   -3.0396    0.5787 H         1 <0>         0.0998
     45 H10        -0.0618   -5.6715   -0.9910 H         1 <0>         0.1140
     46 H11        -1.5405   -4.6834   -0.9195 H         1 <0>         0.0920
     47 H12        -1.6739   -6.1971   -5.1517 H         1 <0>         0.1483
     48 H13        -3.7916   -9.4781   -3.3784 H         1 <0>         0.1667
     49 H14        -1.8556   -6.7582   -0.9157 H         1 <0>         0.1578
     50 H15        -2.1477   -6.8166   -6.8164 H         1 <0>         0.1352
     51 H16        -2.7842   -7.6231   -9.0431 H         1 <0>         0.1368
     52 H17        -4.2668  -10.0831   -5.0285 H         1 <0>         0.1374
     53 H18        -4.6541  -12.1013   -7.3217 H         1 <0>         0.1555
     54 H19        -4.2017   -9.6435  -10.3451 H         1 <0>         0.4207
     55 H20        -6.7080  -12.8924   -5.9466 H         1 <0>         0.1543
     56 H21        -9.2068  -11.9748   -5.4885 H         1 <0>         0.1543
     57 H22        -9.4365   -9.7010   -6.7703 H         1 <0>         0.2067
     58 H23         0.0090   -1.6300   -1.9793 H         1 <0>         0.4381
     59 H24        -0.8356   -2.6756   -2.9322 H         1 <0>         0.4392
     60 H25        -1.3700   -2.3311   -1.4122 H         1 <0>         0.4300
@<TRIPOS>BOND
     1    1    6 ar
     2    1    2 ar
     3    1   38 1
     4    2    3 ar
     5    2   39 1
     6    3    4 ar
     7    3   40 1
     8    4    9 1
     9    4    5 ar
    10    5    6 ar
    11    5    7 1
    12    6   41 1
    13    7    8 2
    14    7   11 1
    15    8    9 1
    16    8   42 1
    17    9   10 1
    18   11   12 1
    19   11   43 1
    20   11   44 1
    21   12   13 1
    22   12   14 1
    23   12   37 1
    24   14   15 1
    25   14   45 1
    26   14   46 1
    27   15   16 1
    28   16   21 ar
    29   16   17 ar
    30   17   18 ar
    31   17   47 1
    32   18   19 ar
    33   18   22 1
    34   19   20 ar
    35   19   48 1
    36   20   21 ar
    37   21   49 1
    38   22   27 ar
    39   22   23 ar
    40   23   24 ar
    41   23   50 1
    42   24   25 ar
    43   24   51 1
    44   25   31 1
    45   25   26 ar
    46   26   27 ar
    47   26   28 1
    48   27   52 1
    49   28   29 1
    50   28   32 1
    51   28   53 1
    52   29   30 2
    53   29   31 am
    54   31   54 1
    55   32   36 1
    56   32   33 2
    57   33   34 1
    58   33   55 1
    59   34   35 2
    60   34   56 1
    61   35   36 1
    62   35   57 1
    63   37   58 1
    64   37   59 1
    65   37   60 1
@<TRIPOS>MOLECULE
CHEMBL573326
   60    65     0     0     0
SMALL
USER_CHARGES

@<TRIPOS>ATOM
      1 C1         -0.0165    1.3620    0.0095 C.ar      1 <0>        -0.1190
      2 C2          1.1697    2.0834    0.0021 C.ar      1 <0>        -0.0931
      3 C3          2.3856    1.4362   -0.0134 C.ar      1 <0>        -0.1110
      4 C4          2.4281    0.0456   -0.0212 C.ar      1 <0>         0.0986
      5 C5          1.2234   -0.6807   -0.0132 C.ar      1 <0>        -0.1171
      6 C6          0.0021   -0.0041    0.0020 C.ar      1 <0>        -0.1141
      7 C7          1.6036   -2.0953   -0.0245 C.2       1 <0>        -0.2378
      8 C8          2.9451   -2.1410   -0.0380 C.2       1 <0>         0.1040
      9 N1          3.4551   -0.8713   -0.0363 N.pl3     1 <0>        -0.5844
     10 H1          4.3995   -0.6501   -0.0442 H         1 <0>         0.4265
     11 C9          0.6664   -3.2754   -0.0210 C.3       1 <0>        -0.0555
     12 C10         0.2361   -3.5891   -1.4554 C.3       1 <0>         0.0435
     13 H2          1.1200   -3.7379   -2.0756 H         1 <0>         0.1529
     14 C11        -0.6144   -4.8610   -1.4661 C.3       1 <0>         0.0263
     15 O1         -0.9189   -5.2190   -2.8156 O.3       1 <0>        -0.3226
     16 C12        -1.6731   -6.3340   -3.0030 C.ar      1 <0>         0.0701
     17 C13        -2.0063   -6.7503   -4.2858 C.ar      1 <0>        -0.0980
     18 C14        -2.7829   -7.9025   -4.4264 C.ar      1 <0>        -0.0341
     19 C15        -3.1908   -8.5858   -3.2820 C.ar      1 <0>         0.0856
     20 N2         -2.8519   -8.1548   -2.0846 N.ar      1 <0>        -0.4374
     21 C16        -2.1151   -7.0742   -1.9153 C.ar      1 <0>         0.0195
     22 C17        -3.1680   -8.3915   -5.7731 C.ar      1 <0>        -0.0836
     23 C18        -2.7522   -7.7062   -6.9137 C.ar      1 <0>        -0.0586
     24 C19        -3.1096   -8.1591   -8.1638 C.ar      1 <0>        -0.1365
     25 C20        -3.8906   -9.3070   -8.2996 C.ar      1 <0>         0.1723
     26 C21        -4.3012   -9.9855   -7.1577 C.ar      1 <0>        -0.1375
     27 C22        -3.9438   -9.5432   -5.9064 C.ar      1 <0>        -0.0317
     28 C23        -5.1170  -11.1654   -7.6346 C.3       1 <0>         0.0054
     29 C24        -5.0956  -11.0414   -9.1432 C.2       1 <0>         0.5362
     30 O2         -5.6318  -11.7876   -9.9349 O.2       1 <0>        -0.4727
     31 N3         -4.3713   -9.9496   -9.4405 N.am      1 <0>        -0.6576
     32 C25        -4.4770  -12.4593   -7.2020 C.2       1 <0>        -0.0115
     33 C26        -5.0453  -13.3954   -6.4209 C.2       1 <0>        -0.1790
     34 C27        -4.0977  -14.4339   -6.2706 C.2       1 <0>        -0.2122
     35 C28        -3.0070  -14.0702   -6.9688 C.2       1 <0>        -0.0264
     36 O3         -3.2446  -12.8760   -7.5355 O.3       1 <0>        -0.1719
     37 N4         -0.5518   -2.4687   -1.9863 N.4       1 <0>        -0.6362
     38 H3         -0.9613    1.8849    0.0259 H         1 <0>         0.1312
     39 H4          1.1388    3.1630    0.0081 H         1 <0>         0.1353
     40 H5          3.3028    2.0064   -0.0198 H         1 <0>         0.1294
     41 H6         -0.9246   -0.5587    0.0082 H         1 <0>         0.1149
     42 H7          3.5346   -3.0459   -0.0490 H         1 <0>         0.1791
     43 H8          1.1742   -4.1414    0.4036 H         1 <0>         0.1217
     44 H9         -0.2127   -3.0396    0.5787 H         1 <0>         0.0999
     45 H10        -0.0618   -5.6715   -0.9910 H         1 <0>         0.1139
     46 H11        -1.5405   -4.6834   -0.9195 H         1 <0>         0.0921
     47 H12        -1.6739   -6.1971   -5.1517 H         1 <0>         0.1483
     48 H13        -3.7916   -9.4781   -3.3784 H         1 <0>         0.1667
     49 H14        -1.8556   -6.7582   -0.9157 H         1 <0>         0.1578
     50 H15        -2.1477   -6.8166   -6.8164 H         1 <0>         0.1352
     51 H16        -2.7842   -7.6231   -9.0431 H         1 <0>         0.1368
     52 H17        -4.2668  -10.0831   -5.0285 H         1 <0>         0.1374
     53 H18        -6.1386  -11.0996   -7.2604 H         1 <0>         0.1554
     54 H19        -4.2017   -9.6435  -10.3451 H         1 <0>         0.4206
     55 H20        -6.0353  -13.3603   -5.9907 H         1 <0>         0.1542
     56 H21        -4.2250  -15.3443   -5.7037 H         1 <0>         0.1543
     57 H22        -2.0962  -14.6432   -7.0612 H         1 <0>         0.2069
     58 H23         0.0090   -1.6300   -1.9793 H         1 <0>         0.4381
     59 H24        -0.8356   -2.6756   -2.9322 H         1 <0>         0.4392
     60 H25        -1.3700   -2.3311   -1.4122 H         1 <0>         0.4300
@<TRIPOS>BOND
     1    1    6 ar
     2    1    2 ar
     3    1   38 1
     4    2    3 ar
     5    2   39 1
     6    3    4 ar
     7    3   40 1
     8    4    9 1
     9    4    5 ar
    10    5    6 ar
    11    5    7 1
    12    6   41 1
    13    7    8 2
    14    7   11 1
    15    8    9 1
    16    8   42 1
    17    9   10 1
    18   11   12 1
    19   11   43 1
    20   11   44 1
    21   12   13 1
    22   12   14 1
    23   12   37 1
    24   14   15 1
    25   14   45 1
    26   14   46 1
    27   15   16 1
    28   16   21 ar
    29   16   17 ar
    30   17   18 ar
    31   17   47 1
    32   18   19 ar
    33   18   22 1
    34   19   20 ar
    35   19   48 1
    36   20   21 ar
    37   21   49 1
    38   22   27 ar
    39   22   23 ar
    40   23   24 ar
    41   23   50 1
    42   24   25 ar
    43   24   51 1
    44   25   31 1
    45   25   26 ar
    46   26   27 ar
    47   26   28 1
    48   27   52 1
    49   28   29 1
    50   28   32 1
    51   28   53 1
    52   29   30 2
    53   29   31 am
    54   31   54 1
    55   32   36 1
    56   32   33 2
    57   33   34 1
    58   33   55 1
    59   34   35 2
    60   34   56 1
    61   35   36 1
    62   35   57 1
    63   37   58 1
    64   37   59 1
    65   37   60 1
@<TRIPOS>MOLECULE
CHEMBL574269
   60    65     0     0     0
SMALL
USER_CHARGES

@<TRIPOS>ATOM
      1 C1         -0.0165    1.3620    0.0095 C.ar      1 <0>        -0.1190
      2 C2          1.1697    2.0834    0.0021 C.ar      1 <0>        -0.0931
      3 C3          2.3856    1.4362   -0.0134 C.ar      1 <0>        -0.1110
      4 C4          2.4281    0.0456   -0.0212 C.ar      1 <0>         0.0986
      5 C5          1.2234   -0.6807   -0.0132 C.ar      1 <0>        -0.1171
      6 C6          0.0021   -0.0041    0.0020 C.ar      1 <0>        -0.1141
      7 C7          1.6036   -2.0953   -0.0245 C.2       1 <0>        -0.2378
      8 C8          2.9451   -2.1410   -0.0380 C.2       1 <0>         0.1040
      9 N1          3.4551   -0.8713   -0.0363 N.pl3     1 <0>        -0.5844
     10 H1          4.3995   -0.6501   -0.0442 H         1 <0>         0.4265
     11 C9          0.6664   -3.2754   -0.0210 C.3       1 <0>        -0.0555
     12 C10         0.2361   -3.5891   -1.4554 C.3       1 <0>         0.0435
     13 H2          1.1200   -3.7379   -2.0756 H         1 <0>         0.1529
     14 C11        -0.6144   -4.8610   -1.4661 C.3       1 <0>         0.0264
     15 O1         -0.9189   -5.2190   -2.8156 O.3       1 <0>        -0.3228
     16 C12        -1.6731   -6.3340   -3.0030 C.ar      1 <0>         0.0700
     17 C13        -2.0063   -6.7503   -4.2858 C.ar      1 <0>        -0.0989
     18 C14        -2.7829   -7.9025   -4.4264 C.ar      1 <0>        -0.0334
     19 C15        -3.1908   -8.5858   -3.2820 C.ar      1 <0>         0.0850
     20 N2         -2.8519   -8.1548   -2.0846 N.ar      1 <0>        -0.4377
     21 C16        -2.1151   -7.0742   -1.9153 C.ar      1 <0>         0.0187
     22 C17        -3.1680   -8.3915   -5.7731 C.ar      1 <0>        -0.0850
     23 C18        -2.7522   -7.7062   -6.9137 C.ar      1 <0>        -0.0628
     24 C19        -3.1096   -8.1591   -8.1638 C.ar      1 <0>        -0.1384
     25 C20        -3.8906   -9.3070   -8.2996 C.ar      1 <0>         0.1662
     26 C21        -4.3012   -9.9855   -7.1577 C.ar      1 <0>        -0.1301
     27 C22        -3.9438   -9.5432   -5.9064 C.ar      1 <0>        -0.0371
     28 C23        -5.1170  -11.1654   -7.6346 C.3       1 <0>        -0.0507
     29 C24        -5.0956  -11.0414   -9.1432 C.2       1 <0>         0.5343
     30 O2         -5.6318  -11.7876   -9.9349 O.2       1 <0>        -0.4807
     31 N3         -4.3713   -9.9496   -9.4405 N.am      1 <0>        -0.6616
     32 C25        -6.5510  -11.0731   -7.1093 C.3       1 <0>        -0.1466
     33 C26        -6.9889  -12.1029   -6.0659 C.3       1 <0>        -0.1685
     34 C27        -7.5192  -12.1921   -7.4983 C.3       1 <0>        -0.1667
     35 N4         -0.5518   -2.4687   -1.9863 N.4       1 <0>        -0.6363
     36 H3         -0.9613    1.8849    0.0259 H         1 <0>         0.1312
     37 H4          1.1388    3.1630    0.0081 H         1 <0>         0.1353
     38 H5          3.3028    2.0064   -0.0198 H         1 <0>         0.1294
     39 H6         -0.9246   -0.5587    0.0082 H         1 <0>         0.1149
     40 H7          3.5346   -3.0459   -0.0490 H         1 <0>         0.1792
     41 H8          1.1742   -4.1414    0.4036 H         1 <0>         0.1218
     42 H9         -0.2127   -3.0396    0.5787 H         1 <0>         0.0998
     43 H10        -0.0618   -5.6715   -0.9910 H         1 <0>         0.1139
     44 H11        -1.5405   -4.6834   -0.9195 H         1 <0>         0.0920
     45 H12        -1.6739   -6.1971   -5.1517 H         1 <0>         0.1479
     46 H13        -3.7916   -9.4781   -3.3784 H         1 <0>         0.1672
     47 H14        -1.8556   -6.7582   -0.9157 H         1 <0>         0.1575
     48 H15        -2.1477   -6.8166   -6.8164 H         1 <0>         0.1333
     49 H16        -2.7842   -7.6231   -9.0431 H         1 <0>         0.1343
     50 H17        -4.2668  -10.0831   -5.0285 H         1 <0>         0.1371
     51 H18        -4.6541  -12.1013   -7.3217 H         1 <0>         0.1282
     52 H19        -4.2017   -9.6435  -10.3451 H         1 <0>         0.4171
     53 H20        -6.9559  -10.0648   -7.0226 H         1 <0>         0.1119
     54 H21        -6.2553  -12.8461   -5.7537 H         1 <0>         0.0988
     55 H22        -7.6819  -11.7722   -5.2923 H         1 <0>         0.1006
     56 H23        -8.5612  -11.9200   -7.6670 H         1 <0>         0.0998
     57 H24        -7.1346  -12.9940   -8.1284 H         1 <0>         0.1046
     58 H25        -1.3700   -2.3311   -1.4122 H         1 <0>         0.4299
     59 H26         0.0090   -1.6300   -1.9793 H         1 <0>         0.4381
     60 H27        -0.8356   -2.6756   -2.9322 H         1 <0>         0.4392
@<TRIPOS>BOND
     1    1    6 ar
     2    1    2 ar
     3    1   36 1
     4    2    3 ar
     5    2   37 1
     6    3    4 ar
     7    3   38 1
     8    4    9 1
     9    4    5 ar
    10    5    6 ar
    11    5    7 1
    12    6   39 1
    13    7    8 2
    14    7   11 1
    15    8    9 1
    16    8   40 1
    17    9   10 1
    18   11   12 1
    19   11   41 1
    20   11   42 1
    21   12   13 1
    22   12   14 1
    23   12   35 1
    24   14   15 1
    25   14   43 1
    26   14   44 1
    27   15   16 1
    28   16   21 ar
    29   16   17 ar
    30   17   18 ar
    31   17   45 1
    32   18   19 ar
    33   18   22 1
    34   19   20 ar
    35   19   46 1
    36   20   21 ar
    37   21   47 1
    38   22   27 ar
    39   22   23 ar
    40   23   24 ar
    41   23   48 1
    42   24   25 ar
    43   24   49 1
    44   25   31 1
    45   25   26 ar
    46   26   27 ar
    47   26   28 1
    48   27   50 1
    49   28   29 1
    50   28   32 1
    51   28   51 1
    52   29   30 2
    53   29   31 am
    54   31   52 1
    55   32   34 1
    56   32   33 1
    57   32   53 1
    58   33   34 1
    59   33   54 1
    60   33   55 1
    61   34   56 1
    62   34   57 1
    63   35   58 1
    64   35   59 1
    65   35   60 1
@<TRIPOS>MOLECULE
CHEMBL574269
   60    65     0     0     0
SMALL
USER_CHARGES

@<TRIPOS>ATOM
      1 C1         -0.0165    1.3620    0.0095 C.ar      1 <0>        -0.1190
      2 C2          1.1697    2.0834    0.0021 C.ar      1 <0>        -0.0931
      3 C3          2.3856    1.4362   -0.0134 C.ar      1 <0>        -0.1110
      4 C4          2.4281    0.0456   -0.0212 C.ar      1 <0>         0.0986
      5 C5          1.2234   -0.6807   -0.0132 C.ar      1 <0>        -0.1171
      6 C6          0.0021   -0.0041    0.0020 C.ar      1 <0>        -0.1141
      7 C7          1.6036   -2.0953   -0.0245 C.2       1 <0>        -0.2378
      8 C8          2.9451   -2.1410   -0.0380 C.2       1 <0>         0.1040
      9 N1          3.4551   -0.8713   -0.0363 N.pl3     1 <0>        -0.5844
     10 H1          4.3995   -0.6501   -0.0442 H         1 <0>         0.4265
     11 C9          0.6664   -3.2754   -0.0210 C.3       1 <0>        -0.0555
     12 C10         0.2361   -3.5891   -1.4554 C.3       1 <0>         0.0435
     13 H2          1.1200   -3.7379   -2.0756 H         1 <0>         0.1529
     14 C11        -0.6144   -4.8610   -1.4661 C.3       1 <0>         0.0264
     15 O1         -0.9189   -5.2190   -2.8156 O.3       1 <0>        -0.3227
     16 C12        -1.6731   -6.3340   -3.0030 C.ar      1 <0>         0.0704
     17 C13        -2.0063   -6.7503   -4.2858 C.ar      1 <0>        -0.0988
     18 C14        -2.7829   -7.9025   -4.4264 C.ar      1 <0>        -0.0332
     19 C15        -3.1908   -8.5858   -3.2820 C.ar      1 <0>         0.0847
     20 N2         -2.8519   -8.1548   -2.0846 N.ar      1 <0>        -0.4373
     21 C16        -2.1151   -7.0742   -1.9153 C.ar      1 <0>         0.0188
     22 C17        -3.1680   -8.3915   -5.7731 C.ar      1 <0>        -0.0841
     23 C18        -2.7522   -7.7062   -6.9137 C.ar      1 <0>        -0.0633
     24 C19        -3.1096   -8.1591   -8.1638 C.ar      1 <0>        -0.1373
     25 C20        -3.8906   -9.3070   -8.2996 C.ar      1 <0>         0.1657
     26 C21        -4.3012   -9.9855   -7.1577 C.ar      1 <0>        -0.1280
     27 C22        -3.9438   -9.5432   -5.9064 C.ar      1 <0>        -0.0395
     28 C23        -5.1170  -11.1654   -7.6346 C.3       1 <0>        -0.0509
     29 C24        -5.0956  -11.0414   -9.1432 C.2       1 <0>         0.5347
     30 O2         -5.6318  -11.7876   -9.9349 O.2       1 <0>        -0.4810
     31 N3         -4.3713   -9.9496   -9.4405 N.am      1 <0>        -0.6613
     32 C25        -4.4672  -12.4790   -7.1954 C.3       1 <0>        -0.1403
     33 C26        -5.3502  -13.4957   -6.4690 C.3       1 <0>        -0.1664
     34 C27        -4.2895  -12.7118   -5.6936 C.3       1 <0>        -0.1706
     35 N4         -0.5518   -2.4687   -1.9863 N.4       1 <0>        -0.6363
     36 H3         -0.9613    1.8849    0.0259 H         1 <0>         0.1312
     37 H4          1.1388    3.1630    0.0081 H         1 <0>         0.1353
     38 H5          3.3028    2.0064   -0.0198 H         1 <0>         0.1294
     39 H6         -0.9246   -0.5587    0.0082 H         1 <0>         0.1149
     40 H7          3.5346   -3.0459   -0.0490 H         1 <0>         0.1792
     41 H8          1.1742   -4.1414    0.4036 H         1 <0>         0.1218
     42 H9         -0.2127   -3.0396    0.5787 H         1 <0>         0.0998
     43 H10        -0.0618   -5.6715   -0.9910 H         1 <0>         0.1140
     44 H11        -1.5405   -4.6834   -0.9195 H         1 <0>         0.0921
     45 H12        -1.6739   -6.1971   -5.1517 H         1 <0>         0.1481
     46 H13        -3.7916   -9.4781   -3.3784 H         1 <0>         0.1660
     47 H14        -1.8556   -6.7582   -0.9157 H         1 <0>         0.1577
     48 H15        -2.1477   -6.8166   -6.8164 H         1 <0>         0.1334
     49 H16        -2.7842   -7.6231   -9.0431 H         1 <0>         0.1344
     50 H17        -4.2668  -10.0831   -5.0285 H         1 <0>         0.1359
     51 H18        -6.1386  -11.0996   -7.2604 H         1 <0>         0.1288
     52 H19        -4.2017   -9.6435  -10.3451 H         1 <0>         0.4176
     53 H20        -3.6948  -12.8666   -7.8596 H         1 <0>         0.1106
     54 H21        -6.3941  -13.2287   -6.3041 H         1 <0>         0.1003
     55 H22        -5.1589  -14.5525   -6.6555 H         1 <0>         0.1018
     56 H23        -3.4004  -13.2528   -5.3699 H         1 <0>         0.1010
     57 H24        -4.6355  -11.9291   -5.0186 H         1 <0>         0.0966
     58 H25        -1.3700   -2.3311   -1.4122 H         1 <0>         0.4300
     59 H26         0.0090   -1.6300   -1.9793 H         1 <0>         0.4381
     60 H27        -0.8356   -2.6756   -2.9322 H         1 <0>         0.4392
@<TRIPOS>BOND
     1    1    6 ar
     2    1    2 ar
     3    1   36 1
     4    2    3 ar
     5    2   37 1
     6    3    4 ar
     7    3   38 1
     8    4    9 1
     9    4    5 ar
    10    5    6 ar
    11    5    7 1
    12    6   39 1
    13    7    8 2
    14    7   11 1
    15    8    9 1
    16    8   40 1
    17    9   10 1
    18   11   12 1
    19   11   41 1
    20   11   42 1
    21   12   13 1
    22   12   14 1
    23   12   35 1
    24   14   15 1
    25   14   43 1
    26   14   44 1
    27   15   16 1
    28   16   21 ar
    29   16   17 ar
    30   17   18 ar
    31   17   45 1
    32   18   19 ar
    33   18   22 1
    34   19   20 ar
    35   19   46 1
    36   20   21 ar
    37   21   47 1
    38   22   27 ar
    39   22   23 ar
    40   23   24 ar
    41   23   48 1
    42   24   25 ar
    43   24   49 1
    44   25   31 1
    45   25   26 ar
    46   26   27 ar
    47   26   28 1
    48   27   50 1
    49   28   29 1
    50   28   32 1
    51   28   51 1
    52   29   30 2
    53   29   31 am
    54   31   52 1
    55   32   34 1
    56   32   33 1
    57   32   53 1
    58   33   34 1
    59   33   54 1
    60   33   55 1
    61   34   56 1
    62   34   57 1
    63   35   58 1
    64   35   59 1
    65   35   60 1
@<TRIPOS>MOLECULE
CHEMBL276130
   55    58     0     0     0
SMALL
USER_CHARGES

@<TRIPOS>ATOM
      1 C1         -0.0225    1.8097    0.0120 C.3       1 <0>        -0.1490
      2 S1          0.0021   -0.0041    0.0020 S.3       1 <0>         0.0308
      3 C2         -1.7016   -0.4536    0.0159 C.ar      1 <0>         0.3273
      4 N1         -2.6174    0.5141    0.0243 N.ar      1 <0>        -0.5274
      5 C3         -3.9053    0.2400    0.0344 C.ar      1 <0>         0.2402
      6 C4         -4.3044   -1.1092    0.0361 C.ar      1 <0>        -0.2286
      7 C5         -5.6573   -1.4815    0.0460 C.ar      1 <0>         0.0092
      8 C6         -5.9597   -2.8353    0.0465 C.ar      1 <0>        -0.1092
      9 C7         -4.9101   -3.7806    0.0372 C.ar      1 <0>         0.2459
     10 N2         -3.6450   -3.4035    0.0283 N.ar      1 <0>        -0.4554
     11 C8         -3.3020   -2.1154    0.0269 C.ar      1 <0>         0.3663
     12 N3         -2.0179   -1.7350    0.0120 N.ar      1 <0>        -0.4845
     13 C9         -5.2358   -5.2255    0.0378 C.ar      1 <0>        -0.0177
     14 C10        -6.3516   -5.6914    0.7329 C.ar      1 <0>        -0.0774
     15 C11        -6.6501   -7.0385    0.7294 C.ar      1 <0>        -0.0959
     16 C12        -5.8450   -7.9265    0.0386 C.ar      1 <0>        -0.1528
     17 C13        -4.7366   -7.4705   -0.6524 C.ar      1 <0>        -0.0962
     18 C14        -4.4313   -6.1249   -0.6615 C.ar      1 <0>        -0.0704
     19 C15        -6.1764   -9.3966    0.0392 C.3       1 <0>         0.0456
     20 N4         -7.0625   -9.6993   -1.0927 N.4       1 <0>        -0.5084
     21 C16        -7.3856  -11.1323   -1.0921 C.3       1 <0>         0.0045
     22 C17        -8.3084  -11.4476   -2.2710 C.3       1 <0>        -0.1760
     23 C18        -8.6398  -12.9177   -2.2704 C.2       1 <0>         0.5237
     24 O1         -8.1829  -13.6420   -1.4116 O.2       1 <0>        -0.5344
     25 N5         -9.4440  -13.4276   -3.2242 N.am      1 <0>        -0.8442
     26 C19        -7.3718   -3.2860    0.0573 C.ar      1 <0>        -0.0505
     27 C20        -7.8088   -4.2401   -0.8605 C.ar      1 <0>        -0.0999
     28 C21        -9.1245   -4.6562   -0.8454 C.ar      1 <0>        -0.1204
     29 C22       -10.0092   -4.1282    0.0777 C.ar      1 <0>        -0.1090
     30 C23        -9.5813   -3.1812    0.9908 C.ar      1 <0>        -0.1113
     31 C24        -8.2666   -2.7617    0.9890 C.ar      1 <0>        -0.1030
     32 H1          1.0001    2.1870    0.0043 H         1 <0>         0.1179
     33 H2         -0.5497    2.1708   -0.8711 H         1 <0>         0.0934
     34 H3         -0.5327    2.1613    0.9088 H         1 <0>         0.0935
     35 H4         -4.6386    1.0328    0.0415 H         1 <0>         0.1882
     36 H5         -6.4393   -0.7367    0.0534 H         1 <0>         0.1579
     37 H6         -6.9805   -4.9992    1.2732 H         1 <0>         0.1445
     38 H7         -7.5139   -7.4005    1.2673 H         1 <0>         0.1367
     39 H8         -4.1117   -8.1686   -1.1895 H         1 <0>         0.1376
     40 H9         -3.5683   -5.7695   -1.2049 H         1 <0>         0.1440
     41 H10        -5.2579   -9.9762   -0.0533 H         1 <0>         0.1418
     42 H11        -6.6772   -9.6558    0.9721 H         1 <0>         0.1415
     43 H12        -7.9127   -9.1628   -1.0071 H         1 <0>         0.4272
     44 H13        -6.4671  -11.7119   -1.1846 H         1 <0>         0.1426
     45 H14        -7.8863  -11.3915   -0.1593 H         1 <0>         0.1425
     46 H15        -9.2269  -10.8680   -2.1785 H         1 <0>         0.1193
     47 H16        -7.8077  -11.1884   -3.2038 H         1 <0>         0.1194
     48 H17        -9.8095  -12.8483   -3.9111 H         1 <0>         0.4074
     49 H18        -9.6573  -14.3738   -3.2238 H         1 <0>         0.4154
     50 H19        -7.1192   -4.6525   -1.5821 H         1 <0>         0.1206
     51 H20        -9.4642   -5.3953   -1.5559 H         1 <0>         0.1231
     52 H21       -11.0381   -4.4564    0.0854 H         1 <0>         0.1268
     53 H22       -10.2765   -2.7723    1.7090 H         1 <0>         0.1307
     54 H23        -7.9325   -2.0256    1.7052 H         1 <0>         0.1285
     55 H24        -6.5989   -9.4594   -1.9562 H         1 <0>         0.4278
@<TRIPOS>BOND
     1    1    2 1
     2    1   32 1
     3    1   33 1
     4    1   34 1
     5    2    3 1
     6    3   12 ar
     7    3    4 ar
     8    4    5 ar
     9    5    6 ar
    10    5   35 1
    11    6   11 ar
    12    6    7 ar
    13    7    8 ar
    14    7   36 1
    15    8    9 ar
    16    8   26 1
    17    9   10 ar
    18    9   13 1
    19   10   11 ar
    20   11   12 ar
    21   13   18 ar
    22   13   14 ar
    23   14   15 ar
    24   14   37 1
    25   15   16 ar
    26   15   38 1
    27   16   17 ar
    28   16   19 1
    29   17   18 ar
    30   17   39 1
    31   18   40 1
    32   19   20 1
    33   19   41 1
    34   19   42 1
    35   20   21 1
    36   20   43 1
    37   20   55 1
    38   21   22 1
    39   21   44 1
    40   21   45 1
    41   22   23 1
    42   22   46 1
    43   22   47 1
    44   23   24 2
    45   23   25 am
    46   25   48 1
    47   25   49 1
    48   26   31 ar
    49   26   27 ar
    50   27   28 ar
    51   27   50 1
    52   28   29 ar
    53   28   51 1
    54   29   30 ar
    55   29   52 1
    56   30   31 ar
    57   30   53 1
    58   31   54 1
@<TRIPOS>MOLECULE
CHEMBL574268
   52    56     0     0     0
SMALL
USER_CHARGES

@<TRIPOS>ATOM
      1 C1         -0.0165    1.3620    0.0095 C.ar      1 <0>        -0.1189
      2 C2          1.1697    2.0834    0.0021 C.ar      1 <0>        -0.0931
      3 C3          2.3856    1.4362   -0.0134 C.ar      1 <0>        -0.1109
      4 C4          2.4281    0.0456   -0.0212 C.ar      1 <0>         0.0986
      5 C5          1.2234   -0.6807   -0.0132 C.ar      1 <0>        -0.1171
      6 C6          0.0021   -0.0041    0.0020 C.ar      1 <0>        -0.1143
      7 C7          1.6036   -2.0953   -0.0245 C.2       1 <0>        -0.2380
      8 C8          2.9451   -2.1410   -0.0380 C.2       1 <0>         0.1042
      9 N1          3.4551   -0.8713   -0.0363 N.pl3     1 <0>        -0.5843
     10 H1          4.3995   -0.6501   -0.0442 H         1 <0>         0.4266
     11 C9          0.6664   -3.2754   -0.0210 C.3       1 <0>        -0.0556
     12 C10         0.2361   -3.5891   -1.4554 C.3       1 <0>         0.0436
     13 H2          1.1200   -3.7379   -2.0756 H         1 <0>         0.1531
     14 C11        -0.6144   -4.8610   -1.4661 C.3       1 <0>         0.0261
     15 O1         -0.9189   -5.2190   -2.8156 O.3       1 <0>        -0.3223
     16 C12        -1.6731   -6.3340   -3.0030 C.ar      1 <0>         0.0705
     17 C13        -2.0063   -6.7503   -4.2858 C.ar      1 <0>        -0.0965
     18 C14        -2.7828   -7.9025   -4.4264 C.ar      1 <0>        -0.0389
     19 C15        -3.1908   -8.5857   -3.2822 C.ar      1 <0>         0.0868
     20 N2         -2.8515   -8.1550   -2.0847 N.ar      1 <0>        -0.4362
     21 C16        -2.1151   -7.0742   -1.9153 C.ar      1 <0>         0.0229
     22 C17        -3.1680   -8.3915   -5.7734 C.ar      1 <0>        -0.0949
     23 C18        -2.7503   -7.7035   -6.9136 C.ar      1 <0>        -0.0276
     24 C19        -3.1027   -8.1495   -8.1707 C.ar      1 <0>        -0.1462
     25 C20        -3.8802   -9.2924   -8.3186 C.ar      1 <0>         0.2106
     26 C21        -4.3019   -9.9875   -7.1724 C.ar      1 <0>        -0.2327
     27 C22        -3.9419   -9.5405   -5.9035 C.ar      1 <0>         0.0143
     28 C23        -5.0971  -11.1366   -7.6454 C.2       1 <0>         0.3890
     29 O2         -5.6433  -11.9860   -6.9726 O.2       1 <0>        -0.3567
     30 C24        -5.0824  -11.0231   -9.1409 C.2       1 <0>         0.4937
     31 O3         -5.6234  -11.7768   -9.9225 O.2       1 <0>        -0.4323
     32 N3         -4.3606   -9.9344   -9.4573 N.am      1 <0>        -0.6512
     33 N4         -0.5518   -2.4687   -1.9863 N.4       1 <0>        -0.6363
     34 H3         -0.9613    1.8849    0.0259 H         1 <0>         0.1313
     35 H4          1.1388    3.1630    0.0081 H         1 <0>         0.1353
     36 H5          3.3028    2.0064   -0.0198 H         1 <0>         0.1295
     37 H6         -0.9246   -0.5587    0.0082 H         1 <0>         0.1149
     38 H7          3.5346   -3.0459   -0.0490 H         1 <0>         0.1792
     39 H8          1.1742   -4.1414    0.4036 H         1 <0>         0.1218
     40 H9         -0.2127   -3.0396    0.5787 H         1 <0>         0.0999
     41 H10        -0.0618   -5.6715   -0.9910 H         1 <0>         0.1144
     42 H11        -1.5405   -4.6834   -0.9195 H         1 <0>         0.0925
     43 H12        -1.6739   -6.1971   -5.1517 H         1 <0>         0.1492
     44 H13        -3.7919   -9.4778   -3.3786 H         1 <0>         0.1681
     45 H14        -1.8557   -6.7582   -0.9157 H         1 <0>         0.1589
     46 H15        -2.1462   -6.8142   -6.8110 H         1 <0>         0.1414
     47 H16        -2.7730   -7.6075   -9.0447 H         1 <0>         0.1450
     48 H17        -4.2649  -10.0803   -5.0255 H         1 <0>         0.1461
     49 H18        -4.1951   -9.6336  -10.3645 H         1 <0>         0.4294
     50 H19        -1.3700   -2.3311   -1.4122 H         1 <0>         0.4301
     51 H20         0.0090   -1.6300   -1.9793 H         1 <0>         0.4383
     52 H21        -0.8356   -2.6756   -2.9322 H         1 <0>         0.4390
@<TRIPOS>BOND
     1    1    6 ar
     2    1    2 ar
     3    1   34 1
     4    2    3 ar
     5    2   35 1
     6    3    4 ar
     7    3   36 1
     8    4    9 1
     9    4    5 ar
    10    5    6 ar
    11    5    7 1
    12    6   37 1
    13    7    8 2
    14    7   11 1
    15    8    9 1
    16    8   38 1
    17    9   10 1
    18   11   12 1
    19   11   39 1
    20   11   40 1
    21   12   13 1
    22   12   14 1
    23   12   33 1
    24   14   15 1
    25   14   41 1
    26   14   42 1
    27   15   16 1
    28   16   21 ar
    29   16   17 ar
    30   17   18 ar
    31   17   43 1
    32   18   19 ar
    33   18   22 1
    34   19   20 ar
    35   19   44 1
    36   20   21 ar
    37   21   45 1
    38   22   27 ar
    39   22   23 ar
    40   23   24 ar
    41   23   46 1
    42   24   25 ar
    43   24   47 1
    44   25   32 1
    45   25   26 ar
    46   26   27 ar
    47   26   28 1
    48   27   48 1
    49   28   29 2
    50   28   30 1
    51   30   31 2
    52   30   32 am
    53   32   49 1
    54   33   50 1
    55   33   51 1
    56   33   52 1
@<TRIPOS>MOLECULE
CHEMBL577377
   53    57     0     0     0
SMALL
USER_CHARGES

@<TRIPOS>ATOM
      1 C1         -0.0165    1.3620    0.0095 C.ar      1 <0>        -0.1189
      2 C2          1.1697    2.0834    0.0021 C.ar      1 <0>        -0.0931
      3 C3          2.3856    1.4362   -0.0134 C.ar      1 <0>        -0.1109
      4 C4          2.4281    0.0456   -0.0212 C.ar      1 <0>         0.0986
      5 C5          1.2234   -0.6807   -0.0132 C.ar      1 <0>        -0.1171
      6 C6          0.0021   -0.0041    0.0020 C.ar      1 <0>        -0.1143
      7 C7          1.6036   -2.0953   -0.0245 C.2       1 <0>        -0.2381
      8 C8          2.9451   -2.1410   -0.0380 C.2       1 <0>         0.1042
      9 N1          3.4551   -0.8713   -0.0363 N.pl3     1 <0>        -0.5843
     10 H1          4.3995   -0.6501   -0.0442 H         1 <0>         0.4266
     11 C9          0.6664   -3.2754   -0.0210 C.3       1 <0>        -0.0556
     12 C10         0.2361   -3.5891   -1.4554 C.3       1 <0>         0.0436
     13 H2          1.1200   -3.7379   -2.0756 H         1 <0>         0.1531
     14 C11        -0.6144   -4.8610   -1.4661 C.3       1 <0>         0.0260
     15 O1         -0.9189   -5.2190   -2.8156 O.3       1 <0>        -0.3222
     16 C12        -1.6731   -6.3340   -3.0030 C.ar      1 <0>         0.0702
     17 C13        -2.0063   -6.7503   -4.2858 C.ar      1 <0>        -0.0948
     18 C14        -2.7829   -7.9025   -4.4264 C.ar      1 <0>        -0.0402
     19 C15        -3.1908   -8.5858   -3.2820 C.ar      1 <0>         0.0884
     20 N2         -2.8519   -8.1548   -2.0846 N.ar      1 <0>        -0.4364
     21 C16        -2.1151   -7.0742   -1.9153 C.ar      1 <0>         0.0240
     22 C17        -3.1680   -8.3915   -5.7731 C.ar      1 <0>        -0.0807
     23 C18        -2.7522   -7.7062   -6.9137 C.ar      1 <0>        -0.0412
     24 C19        -3.1096   -8.1591   -8.1638 C.ar      1 <0>        -0.1334
     25 C20        -3.8906   -9.3070   -8.2996 C.ar      1 <0>         0.1897
     26 C21        -4.3012   -9.9855   -7.1577 C.ar      1 <0>        -0.2095
     27 C22        -3.9438   -9.5432   -5.9064 C.ar      1 <0>        -0.0037
     28 C23        -5.1170  -11.1654   -7.6346 C.3       1 <0>         0.3252
     29 C24        -5.0956  -11.0414   -9.1432 C.2       1 <0>         0.5091
     30 O2         -5.6318  -11.7876   -9.9349 O.2       1 <0>        -0.4321
     31 N3         -4.3713   -9.9496   -9.4405 N.am      1 <0>        -0.6480
     32 F1         -4.5229  -12.3666   -7.2330 F         1 <0>        -0.1579
     33 F2         -6.4282  -11.0810   -7.1543 F         1 <0>        -0.1581
     34 N4         -0.5518   -2.4687   -1.9863 N.4       1 <0>        -0.6363
     35 H3         -0.9613    1.8849    0.0259 H         1 <0>         0.1313
     36 H4          1.1388    3.1630    0.0081 H         1 <0>         0.1353
     37 H5          3.3028    2.0064   -0.0198 H         1 <0>         0.1295
     38 H6         -0.9246   -0.5587    0.0082 H         1 <0>         0.1149
     39 H7          3.5346   -3.0459   -0.0490 H         1 <0>         0.1792
     40 H8          1.1742   -4.1414    0.4036 H         1 <0>         0.1219
     41 H9         -0.2127   -3.0396    0.5787 H         1 <0>         0.0999
     42 H10        -0.0618   -5.6715   -0.9910 H         1 <0>         0.1145
     43 H11        -1.5405   -4.6834   -0.9195 H         1 <0>         0.0926
     44 H12        -1.6739   -6.1971   -5.1517 H         1 <0>         0.1495
     45 H13        -3.7916   -9.4781   -3.3784 H         1 <0>         0.1679
     46 H14        -1.8556   -6.7582   -0.9157 H         1 <0>         0.1592
     47 H15        -2.1477   -6.8166   -6.8164 H         1 <0>         0.1427
     48 H16        -2.7842   -7.6231   -9.0431 H         1 <0>         0.1458
     49 H17        -4.2668  -10.0831   -5.0285 H         1 <0>         0.1454
     50 H18        -4.2017   -9.6435  -10.3451 H         1 <0>         0.4316
     51 H19        -0.8356   -2.6756   -2.9322 H         1 <0>         0.4390
     52 H20        -1.3700   -2.3311   -1.4122 H         1 <0>         0.4301
     53 H21         0.0090   -1.6300   -1.9793 H         1 <0>         0.4383
@<TRIPOS>BOND
     1    1    6 ar
     2    1    2 ar
     3    1   35 1
     4    2    3 ar
     5    2   36 1
     6    3    4 ar
     7    3   37 1
     8    4    9 1
     9    4    5 ar
    10    5    6 ar
    11    5    7 1
    12    6   38 1
    13    7    8 2
    14    7   11 1
    15    8    9 1
    16    8   39 1
    17    9   10 1
    18   11   12 1
    19   11   40 1
    20   11   41 1
    21   12   13 1
    22   12   14 1
    23   12   34 1
    24   14   15 1
    25   14   42 1
    26   14   43 1
    27   15   16 1
    28   16   21 ar
    29   16   17 ar
    30   17   18 ar
    31   17   44 1
    32   18   19 ar
    33   18   22 1
    34   19   20 ar
    35   19   45 1
    36   20   21 ar
    37   21   46 1
    38   22   27 ar
    39   22   23 ar
    40   23   24 ar
    41   23   47 1
    42   24   25 ar
    43   24   48 1
    44   25   31 1
    45   25   26 ar
    46   26   27 ar
    47   26   28 1
    48   27   49 1
    49   28   29 1
    50   28   32 1
    51   28   33 1
    52   29   30 2
    53   29   31 am
    54   31   50 1
    55   34   51 1
    56   34   52 1
    57   34   53 1
@<TRIPOS>MOLECULE
CHEMBL596072
   60    65     0     0     0
SMALL
USER_CHARGES

@<TRIPOS>ATOM
      1 C1         -0.0184    1.5028    0.0103 C.3       1 <0>        -0.0794
      2 C2          0.0021   -0.0041    0.0020 C.2       1 <0>         0.1153
      3 C3          0.0084   -0.8590   -1.1805 C.ar      1 <0>        -0.2249
      4 C4         -0.0015   -0.6158   -2.5576 C.ar      1 <0>         0.0278
      5 C5          0.0091   -1.7129   -3.4141 C.ar      1 <0>        -0.1649
      6 C6          0.0291   -3.0030   -2.8719 C.ar      1 <0>         0.2042
      7 N1          0.0380   -3.1995   -1.5738 N.ar      1 <0>        -0.4939
      8 C7          0.0285   -2.1884   -0.7124 C.ar      1 <0>         0.3277
      9 N2          0.0337   -2.1197    0.6546 N.pl3     1 <0>        -0.4867
     10 H1          0.0473   -2.8814    1.2551 H         1 <0>         0.4495
     11 N3          0.0230   -0.7783    1.0488 N.2       1 <0>        -0.2274
     12 C8         -0.0011   -1.5170   -4.8838 C.ar      1 <0>        -0.0308
     13 C9         -0.9323   -0.6662   -5.4794 C.ar      1 <0>        -0.0826
     14 C10        -0.9006   -0.5159   -6.8605 C.ar      1 <0>         0.0604
     15 C11         0.0477   -1.2101   -7.5999 C.ar      1 <0>         0.0356
     16 N4          0.9164   -2.0084   -7.0135 N.ar      1 <0>        -0.4310
     17 C12         0.9302   -2.1804   -5.6988 C.ar      1 <0>         0.2025
     18 C13         1.9315   -3.0843   -5.0858 C.2       1 <0>        -0.1595
     19 C14         2.4717   -4.3245   -5.6555 C.2       1 <0>        -0.1827
     20 C15         3.3434   -4.7993   -4.7504 C.2       1 <0>        -0.0285
     21 O1          3.3778   -3.9676   -3.6982 O.3       1 <0>        -0.1702
     22 C16         2.5446   -2.9337   -3.8819 C.2       1 <0>         0.0090
     23 O2         -1.7900    0.3030   -7.4820 O.3       1 <0>        -0.3215
     24 C17        -1.6939    0.4050   -8.9041 C.3       1 <0>         0.0258
     25 C18        -2.7684    1.3641   -9.4204 C.3       1 <0>         0.0434
     26 H2         -3.7474    1.0337   -9.0735 H         1 <0>         0.1530
     27 C19        -2.7472    1.3780  -10.9502 C.3       1 <0>        -0.0555
     28 C20        -3.8834    2.2263  -11.4606 C.2       1 <0>        -0.2377
     29 C21        -5.0991    1.7938  -11.8307 C.2       1 <0>         0.1041
     30 N5         -5.8660    2.8509  -12.2390 N.pl3     1 <0>        -0.5846
     31 H3         -6.7819    2.7868  -12.5521 H         1 <0>         0.4265
     32 C22        -5.1442    4.0192  -12.1390 C.ar      1 <0>         0.0988
     33 C23        -3.8727    3.6800  -11.6411 C.ar      1 <0>        -0.1171
     34 C24        -2.9188    4.6770  -11.4295 C.ar      1 <0>        -0.1141
     35 C25        -3.2268    5.9798  -11.7042 C.ar      1 <0>        -0.1190
     36 C26        -4.4809    6.3201  -12.1916 C.ar      1 <0>        -0.0932
     37 C27        -5.4342    5.3508  -12.4165 C.ar      1 <0>        -0.1110
     38 N6         -2.5008    2.7172   -8.9147 N.4       1 <0>        -0.6363
     39 H4          1.0042    1.8801    0.0026 H         1 <0>         0.0891
     40 H5         -0.5455    1.8639   -0.8728 H         1 <0>         0.0825
     41 H6         -0.5286    1.8543    0.9071 H         1 <0>         0.0863
     42 H7         -0.0173    0.3923   -2.9446 H         1 <0>         0.1438
     43 H8          0.0370   -3.8551   -3.5355 H         1 <0>         0.1676
     44 H9         -1.6602   -0.1375   -4.8818 H         1 <0>         0.1497
     45 H10         0.0733   -1.0942   -8.6733 H         1 <0>         0.1607
     46 H11         2.2193   -4.7659   -6.6083 H         1 <0>         0.1572
     47 H12         3.9228   -5.7050   -4.8529 H         1 <0>         0.2093
     48 H13         2.3857   -2.1200   -3.1898 H         1 <0>         0.1981
     49 H14        -0.7084    0.7834   -9.1755 H         1 <0>         0.0922
     50 H15        -1.8407   -0.5789   -9.3497 H         1 <0>         0.1140
     51 H16        -1.8004    1.7921  -11.2967 H         1 <0>         0.0999
     52 H17        -2.8572    0.3601  -11.3243 H         1 <0>         0.1218
     53 H18        -5.4237    0.7640  -11.8097 H         1 <0>         0.1791
     54 H19        -1.9411    4.4197  -11.0498 H         1 <0>         0.1149
     55 H20        -2.4884    6.7508  -11.5404 H         1 <0>         0.1312
     56 H21        -4.7096    7.3541  -12.4033 H         1 <0>         0.1352
     57 H22        -6.4077    5.6259  -12.7949 H         1 <0>         0.1294
     58 H23        -3.2093    3.3497   -9.2552 H         1 <0>         0.4381
     59 H24        -2.5147    2.7080   -7.9059 H         1 <0>         0.4392
     60 H25        -1.5945    3.0231   -9.2358 H         1 <0>         0.4299
@<TRIPOS>BOND
     1    1    2 1
     2    1   39 1
     3    1   40 1
     4    1   41 1
     5    2   11 2
     6    2    3 1
     7    3    8 ar
     8    3    4 ar
     9    4    5 ar
    10    4   42 1
    11    5    6 ar
    12    5   12 1
    13    6    7 ar
    14    6   43 1
    15    7    8 ar
    16    8    9 1
    17    9   10 1
    18    9   11 1
    19   12   17 ar
    20   12   13 ar
    21   13   14 ar
    22   13   44 1
    23   14   15 ar
    24   14   23 1
    25   15   16 ar
    26   15   45 1
    27   16   17 ar
    28   17   18 1
    29   18   22 2
    30   18   19 1
    31   19   20 2
    32   19   46 1
    33   20   21 1
    34   20   47 1
    35   21   22 1
    36   22   48 1
    37   23   24 1
    38   24   25 1
    39   24   49 1
    40   24   50 1
    41   25   26 1
    42   25   27 1
    43   25   38 1
    44   27   28 1
    45   27   51 1
    46   27   52 1
    47   28   33 1
    48   28   29 2
    49   29   30 1
    50   29   53 1
    51   30   31 1
    52   30   32 1
    53   32   37 ar
    54   32   33 ar
    55   33   34 ar
    56   34   35 ar
    57   34   54 1
    58   35   36 ar
    59   35   55 1
    60   36   37 ar
    61   36   56 1
    62   37   57 1
    63   38   58 1
    64   38   59 1
    65   38   60 1
@<TRIPOS>MOLECULE
CHEMBL1098938
   62    65     0     0     0
SMALL
USER_CHARGES

@<TRIPOS>ATOM
      1 C1         -0.0187    1.5258    0.0104 C.3       1 <0>        -0.1700
      2 C2          0.0021   -0.0041    0.0020 C.3       1 <0>         0.0940
      3 N1          0.7106   -0.4894    1.1889 N.pl3     1 <0>        -0.4545
      4 C3          2.0591   -0.7390    1.2909 C.ar      1 <0>         0.1286
      5 C4          3.1434   -0.6439    0.4279 C.ar      1 <0>        -0.1672
      6 C5          4.4035   -0.9912    0.8894 C.ar      1 <0>         0.3251
      7 N2          4.5902   -1.4096    2.1317 N.ar      1 <0>        -0.5206
      8 C6          3.5912   -1.5196    2.9985 C.ar      1 <0>         0.3700
      9 C7          2.2790   -1.1866    2.6096 C.ar      1 <0>         0.0059
     10 N3          1.0876   -1.1892    3.2334 N.2       1 <0>        -0.4330
     11 C8          0.1554   -0.7750    2.4101 C.2       1 <0>         0.3448
     12 C9         -1.2785   -0.6396    2.7460 C.2       1 <0>         0.1274
     13 C10        -1.8891   -0.9348    4.0485 C.2       1 <0>         0.3634
     14 N4         -3.1689   -0.6966    3.9645 N.2       1 <0>        -0.3412
     15 O1         -3.4447   -0.2500    2.6489 O.3       1 <0>         0.0526
     16 N5         -2.2210   -0.2305    1.9357 N.2       1 <0>        -0.2440
     17 N6         -1.2189   -1.3898    5.1764 N.pl3     1 <0>        -0.8019
     18 C11         3.8475   -1.9779    4.3307 C.1       1 <0>        -0.1380
     19 C12         4.0577   -2.3536    5.4229 C.1       1 <0>        -0.1021
     20 C13         4.3213   -2.8247    6.7924 C.3       1 <0>         0.2375
     21 C14         3.0105   -2.8598    7.5807 C.3       1 <0>        -0.1782
     22 C15         4.9235   -4.2302    6.7412 C.3       1 <0>        -0.1390
     23 O2          5.2390   -1.9364    7.4333 O.3       1 <0>        -0.5431
     24 O3          5.4672   -0.9010    0.0510 O.3       1 <0>        -0.3130
     25 C16         6.7425   -1.2714    0.5787 C.3       1 <0>         0.0424
     26 C17         7.8103   -1.1055   -0.5044 C.3       1 <0>         0.0408
     27 H1          7.7795   -0.0872   -0.8920 H         1 <0>         0.1545
     28 C18         9.1910   -1.3818    0.0942 C.3       1 <0>        -0.0963
     29 C19        10.2518   -1.0995   -0.9384 C.ar      1 <0>        -0.1290
     30 C20        10.6701   -2.1034   -1.7917 C.ar      1 <0>        -0.1404
     31 C21        11.6431   -1.8445   -2.7389 C.ar      1 <0>        -0.1076
     32 C22        12.1974   -0.5816   -2.8331 C.ar      1 <0>        -0.1019
     33 C23        11.7784    0.4224   -1.9803 C.ar      1 <0>        -0.1052
     34 C24        10.8023    0.1647   -1.0360 C.ar      1 <0>        -0.1030
     35 N7          7.5515   -2.0532   -1.5965 N.4       1 <0>        -0.6369
     36 H2          1.0039    1.9031    0.0027 H         1 <0>         0.0642
     37 H3         -0.5459    1.8868   -0.8726 H         1 <0>         0.0910
     38 H4         -0.5289    1.8773    0.9072 H         1 <0>         0.0666
     39 H5         -1.0205   -0.3814    0.0098 H         1 <0>         0.1137
     40 H6          0.5123   -0.3556   -0.8948 H         1 <0>         0.1031
     41 H7          3.0066   -0.3046   -0.5883 H         1 <0>         0.1523
     42 H8         -0.2610   -1.5392    5.1441 H         1 <0>         0.4290
     43 H9         -1.7087   -1.5583    5.9965 H         1 <0>         0.4211
     44 H10         2.3105   -3.5373    7.0918 H         1 <0>         0.0748
     45 H11         3.2057   -3.2086    8.5948 H         1 <0>         0.0820
     46 H12         2.5815   -1.8584    7.6172 H         1 <0>         0.0665
     47 H13         5.8573   -4.2052    6.1795 H         1 <0>         0.0676
     48 H14         5.1186   -4.5791    7.7552 H         1 <0>         0.0811
     49 H15         4.2235   -4.9078    6.2523 H         1 <0>         0.0770
     50 H16         4.9222   -1.0252    7.5010 H         1 <0>         0.3842
     51 H17         6.9839   -0.6322    1.4279 H         1 <0>         0.1178
     52 H18         6.7130   -2.3114    0.9036 H         1 <0>         0.0967
     53 H19         9.3469   -0.7386    0.9603 H         1 <0>         0.1257
     54 H20         9.2516   -2.4259    0.4013 H         1 <0>         0.1039
     55 H21        10.2371   -3.0900   -1.7182 H         1 <0>         0.1227
     56 H22        11.9705   -2.6290   -3.4051 H         1 <0>         0.1323
     57 H23        12.9581   -0.3796   -3.5726 H         1 <0>         0.1327
     58 H24        12.2117    1.4090   -2.0537 H         1 <0>         0.1332
     59 H25        10.4723    0.9501   -0.3723 H         1 <0>         0.1307
     60 H26         7.5800   -2.9958   -1.2376 H         1 <0>         0.4326
     61 H27         6.6409   -1.8710   -1.9912 H         1 <0>         0.4411
     62 H28         8.2557   -1.9438   -2.3107 H         1 <0>         0.4359
@<TRIPOS>BOND
     1    1    2 1
     2    1   36 1
     3    1   37 1
     4    1   38 1
     5    2    3 1
     6    2   39 1
     7    2   40 1
     8    3   11 1
     9    3    4 1
    10    4    9 ar
    11    4    5 ar
    12    5    6 ar
    13    5   41 1
    14    6    7 ar
    15    6   24 1
    16    7    8 ar
    17    8    9 ar
    18    8   18 1
    19    9   10 1
    20   10   11 2
    21   11   12 1
    22   12   16 2
    23   12   13 1
    24   13   14 2
    25   13   17 1
    26   14   15 1
    27   15   16 1
    28   17   42 1
    29   17   43 1
    30   18   19 3
    31   19   20 1
    32   20   21 1
    33   20   22 1
    34   20   23 1
    35   21   44 1
    36   21   45 1
    37   21   46 1
    38   22   47 1
    39   22   48 1
    40   22   49 1
    41   23   50 1
    42   24   25 1
    43   25   26 1
    44   25   51 1
    45   25   52 1
    46   26   27 1
    47   26   28 1
    48   26   35 1
    49   28   29 1
    50   28   53 1
    51   28   54 1
    52   29   34 ar
    53   29   30 ar
    54   30   31 ar
    55   30   55 1
    56   31   32 ar
    57   31   56 1
    58   32   33 ar
    59   32   57 1
    60   33   34 ar
    61   33   58 1
    62   34   59 1
    63   35   60 1
    64   35   61 1
    65   35   62 1
@<TRIPOS>MOLECULE
CHEMBL603197
   59    64     0     0     0
SMALL
USER_CHARGES

@<TRIPOS>ATOM
      1 C1         -3.2233   -0.0916   -0.3968 C.3       1 <0>        -0.0778
      2 C2         -2.0092   -0.9714   -0.2454 C.2       1 <0>         0.1149
      3 C3         -1.1285   -1.3447   -1.2849 C.ar      1 <0>         0.0676
      4 C4         -0.1383   -2.1668   -0.7048 C.ar      1 <0>         0.0250
      5 C5          0.8665   -2.6778   -1.5233 C.ar      1 <0>         0.1690
      6 N1          0.8555   -2.3750   -2.8079 N.ar      1 <0>        -0.4457
      7 C6         -0.0914   -1.5971   -3.3267 C.ar      1 <0>         0.3179
      8 N2         -1.0657   -1.0874   -2.5928 N.ar      1 <0>        -0.4370
      9 C7         -0.0521   -1.2916   -4.7758 C.ar      1 <0>        -0.0170
     10 C8         -0.1706    0.0238   -5.2272 C.ar      1 <0>        -0.0566
     11 C9         -0.1278    0.2582   -6.5960 C.ar      1 <0>         0.0553
     12 C10         0.0302   -0.8124   -7.4662 C.ar      1 <0>         0.0466
     13 N3          0.1400   -2.0453   -7.0153 N.ar      1 <0>        -0.4406
     14 C11         0.1109   -2.3200   -5.7184 C.ar      1 <0>         0.2252
     15 C12         0.2448   -3.7224   -5.2607 C.2       1 <0>        -0.1467
     16 C13        -0.5381   -4.3918   -4.2147 C.2       1 <0>        -0.1907
     17 C14        -0.0683   -5.6484   -4.1472 C.2       1 <0>        -0.0251
     18 O1          0.9158   -5.7965   -5.0471 O.3       1 <0>        -0.1736
     19 C15         1.1143   -4.6584   -5.7263 C.2       1 <0>         0.0256
     20 O2         -0.2399    1.5240   -7.0789 O.3       1 <0>        -0.3203
     21 C16        -0.1865    1.6840   -8.4979 C.3       1 <0>         0.0253
     22 C17        -0.3285    3.1663   -8.8497 C.3       1 <0>         0.0432
     23 H1         -1.2408    3.5602   -8.4019 H         1 <0>         0.1534
     24 C18        -0.3966    3.3254  -10.3698 C.3       1 <0>        -0.0555
     25 C19        -0.6592    4.7693  -10.7125 C.2       1 <0>        -0.2373
     26 C20        -1.8560    5.3281  -10.9519 C.2       1 <0>         0.1040
     27 N4         -1.7023    6.6592  -11.2292 N.pl3     1 <0>        -0.5846
     28 H2         -2.4250    7.2727  -11.4344 H         1 <0>         0.4264
     29 C21        -0.3689    6.9981  -11.1735 C.ar      1 <0>         0.0987
     30 C22         0.3424    5.8304  -10.8412 C.ar      1 <0>        -0.1170
     31 C23         1.7313    5.8750  -10.7082 C.ar      1 <0>        -0.1139
     32 C24         2.3935    7.0553  -10.8982 C.ar      1 <0>        -0.1193
     33 C25         1.6960    8.2107  -11.2222 C.ar      1 <0>        -0.0934
     34 C26         0.3260    8.1872  -11.3675 C.ar      1 <0>        -0.1111
     35 N5          0.8302    3.9057   -8.3313 N.4       1 <0>        -0.6365
     36 N6         -0.4396   -2.2637    0.6274 N.pl3     1 <0>        -0.4758
     37 H3          0.0614   -2.7646    1.2901 H         1 <0>         0.4536
     38 N7         -1.5952   -1.5088    0.8669 N.2       1 <0>        -0.2115
     39 H4         -2.9383    0.9498   -0.2473 H         1 <0>         0.0879
     40 H5         -3.6387   -0.2146   -1.3970 H         1 <0>         0.0888
     41 H6         -3.9711   -0.3737    0.3444 H         1 <0>         0.0860
     42 H7          1.6406   -3.3099   -1.1140 H         1 <0>         0.1807
     43 H8         -0.2931    0.8392   -4.5297 H         1 <0>         0.1516
     44 H9          0.0633   -0.6312   -8.5304 H         1 <0>         0.1636
     45 H10        -1.3303   -3.9614   -3.6202 H         1 <0>         0.1380
     46 H11        -0.4250   -6.4159   -3.4762 H         1 <0>         0.2044
     47 H12         1.8429   -4.5093   -6.5095 H         1 <0>         0.2085
     48 H13         0.7682    1.3121   -8.8698 H         1 <0>         0.0924
     49 H14        -0.9994    1.1220   -8.9578 H         1 <0>         0.1145
     50 H15         0.5504    3.0139  -10.8105 H         1 <0>         0.0999
     51 H16        -1.2021    2.7060  -10.7643 H         1 <0>         0.1220
     52 H17        -2.8003    4.8046  -10.9294 H         1 <0>         0.1792
     53 H18         2.2805    4.9800  -10.4556 H         1 <0>         0.1150
     54 H19         3.4680    7.0893  -10.7952 H         1 <0>         0.1310
     55 H20         2.2333    9.1360  -11.3686 H         1 <0>         0.1350
     56 H21        -0.2078    9.0918  -11.6186 H         1 <0>         0.1292
     57 H22         0.7366    4.8832   -8.5633 H         1 <0>         0.4379
     58 H23         0.8751    3.8007   -7.3288 H         1 <0>         0.4396
     59 H24         1.6748    3.5410   -8.7458 H         1 <0>         0.4298
@<TRIPOS>BOND
     1    1    2 1
     2    1   39 1
     3    1   40 1
     4    1   41 1
     5    2   38 2
     6    2    3 1
     7    3    8 ar
     8    3    4 ar
     9    4    5 ar
    10    4   36 1
    11    5    6 ar
    12    5   42 1
    13    6    7 ar
    14    7    8 ar
    15    7    9 1
    16    9   14 ar
    17    9   10 ar
    18   10   11 ar
    19   10   43 1
    20   11   12 ar
    21   11   20 1
    22   12   13 ar
    23   12   44 1
    24   13   14 ar
    25   14   15 1
    26   15   19 2
    27   15   16 1
    28   16   17 2
    29   16   45 1
    30   17   18 1
    31   17   46 1
    32   18   19 1
    33   19   47 1
    34   20   21 1
    35   21   22 1
    36   21   48 1
    37   21   49 1
    38   22   23 1
    39   22   24 1
    40   22   35 1
    41   24   25 1
    42   24   50 1
    43   24   51 1
    44   25   30 1
    45   25   26 2
    46   26   27 1
    47   26   52 1
    48   27   28 1
    49   27   29 1
    50   29   34 ar
    51   29   30 ar
    52   30   31 ar
    53   31   32 ar
    54   31   53 1
    55   32   33 ar
    56   32   54 1
    57   33   34 ar
    58   33   55 1
    59   34   56 1
    60   35   57 1
    61   35   58 1
    62   35   59 1
    63   36   37 1
    64   36   38 1
@<TRIPOS>MOLECULE
CHEMBL1095612
   68    73     0     0     0
SMALL
USER_CHARGES

@<TRIPOS>ATOM
      1 C1         -0.0173    1.4248    0.0099 C.3       1 <0>         0.0215
      2 O1          0.0021   -0.0041    0.0020 O.3       1 <0>        -0.2971
      3 C2          0.6061   -0.6074   -1.0562 C.ar      1 <0>         0.1209
      4 C3          1.1683    0.1600   -2.0543 C.ar      1 <0>        -0.1566
      5 C4          1.7875   -0.4605   -3.1390 C.ar      1 <0>        -0.0898
      6 C5          2.3993    0.3083   -4.2235 C.ar      1 <0>         0.0694
      7 C6          2.4135    1.7012   -4.2609 C.ar      1 <0>        -0.2062
      8 C7          3.0225    2.3301   -5.3383 C.ar      1 <0>         0.2271
      9 N1          3.5848    1.6300   -6.3224 N.ar      1 <0>        -0.5555
     10 C8          3.5997    0.3098   -6.3368 C.ar      1 <0>         0.4694
     11 C9          3.0051   -0.4127   -5.2831 C.ar      1 <0>        -0.2162
     12 C10         2.9912   -1.8187   -5.2449 C.ar      1 <0>         0.1857
     13 N2          2.4361   -2.4726   -4.2613 N.ar      1 <0>        -0.4770
     14 C11         1.8395   -1.8730   -3.2169 C.ar      1 <0>         0.1385
     15 C12         1.2610   -2.6334   -2.1912 C.ar      1 <0>        -0.1598
     16 C13         0.6591   -2.0044   -1.1243 C.ar      1 <0>         0.1386
     17 O2          0.1059   -2.7477   -0.1300 O.3       1 <0>        -0.2981
     18 C14         0.1925   -4.1684   -0.2571 C.3       1 <0>         0.0206
     19 N3          4.1985   -0.3641   -7.3864 N.pl3     1 <0>        -0.8308
     20 C15         3.0473    3.8117   -5.3952 C.ar      1 <0>        -0.0522
     21 C16         3.5549    4.4703   -6.5183 C.ar      1 <0>        -0.0576
     22 C17         3.5557    5.8590   -6.5218 C.ar      1 <0>         0.0589
     23 C18         3.0565    6.5389   -5.4190 C.ar      1 <0>         0.0337
     24 N4          2.5850    5.8852   -4.3755 N.ar      1 <0>        -0.4420
     25 C19         2.5595    4.5689   -4.3316 C.ar      1 <0>         0.1018
     26 O3          4.0395    6.5441   -7.5914 O.3       1 <0>        -0.3210
     27 C20         4.0052    7.9708   -7.5175 C.3       1 <0>         0.0257
     28 C21         4.5869    8.5622   -8.8031 C.3       1 <0>         0.0434
     29 H1          5.5861    8.1595   -8.9686 H         1 <0>         0.1531
     30 C22         4.6656   10.0847   -8.6740 C.3       1 <0>        -0.0555
     31 C23         5.3506   10.6570   -9.8883 C.2       1 <0>        -0.2375
     32 C24         6.6552   10.9505  -10.0049 C.2       1 <0>         0.1040
     33 N5          6.9110   11.4521  -11.2520 N.pl3     1 <0>        -0.5846
     34 H2          7.7822   11.7355  -11.5708 H         1 <0>         0.4265
     35 C25         5.7474   11.4948  -11.9871 C.ar      1 <0>         0.0988
     36 C26         4.7200   10.9926  -11.1672 C.ar      1 <0>        -0.1170
     37 C27         3.4153   10.9113  -11.6567 C.ar      1 <0>        -0.1140
     38 C28         3.1429   11.3171  -12.9329 C.ar      1 <0>        -0.1191
     39 C29         4.1535   11.8093  -13.7470 C.ar      1 <0>        -0.0932
     40 C30         5.4466   11.9069  -13.2809 C.ar      1 <0>        -0.1110
     41 N6          3.7231    8.2110   -9.9382 N.4       1 <0>        -0.6363
     42 H3          1.0053    1.8021    0.0021 H         1 <0>         0.0582
     43 H4         -0.5445    1.7859   -0.8732 H         1 <0>         0.0580
     44 H5         -0.5275    1.7763    0.9067 H         1 <0>         0.1073
     45 H6          1.1291    1.2377   -1.9965 H         1 <0>         0.1449
     46 H7          1.9602    2.2790   -3.4691 H         1 <0>         0.1422
     47 H8          3.4514   -2.3714   -6.0506 H         1 <0>         0.1596
     48 H9          1.2920   -3.7121   -2.2351 H         1 <0>         0.1540
     49 H10         1.2402   -4.4664   -0.2973 H         1 <0>         0.0610
     50 H11        -0.2867   -4.6399    0.6009 H         1 <0>         0.1080
     51 H12        -0.3099   -4.4826   -1.1720 H         1 <0>         0.0609
     52 H13         4.6075    0.1333   -8.1118 H         1 <0>         0.4112
     53 H14         4.2093   -1.3340   -7.3968 H         1 <0>         0.4147
     54 H15         3.9369    3.9138   -7.3614 H         1 <0>         0.1575
     55 H16         3.0548    7.6189   -5.4157 H         1 <0>         0.1601
     56 H17         2.1606    4.0712   -3.4601 H         1 <0>         0.1684
     57 H18         2.9742    8.3038   -7.3984 H         1 <0>         0.0920
     58 H19         4.5957    8.3047   -6.6643 H         1 <0>         0.1139
     59 H20         3.6588   10.4954   -8.5975 H         1 <0>         0.0998
     60 H21         5.2330   10.3448   -7.7804 H         1 <0>         0.1218
     61 H22         7.3937   10.8116   -9.2292 H         1 <0>         0.1791
     62 H23         2.6240   10.5287  -11.0291 H         1 <0>         0.1149
     63 H24         2.1333   11.2540  -13.3111 H         1 <0>         0.1311
     64 H25         3.9228   12.1255  -14.7536 H         1 <0>         0.1352
     65 H26         6.2263   12.2901  -13.9226 H         1 <0>         0.1294
     66 H27         2.7982    8.5838   -9.7850 H         1 <0>         0.4298
     67 H28         4.1068    8.6010  -10.7860 H         1 <0>         0.4380
     68 H29         3.6713    7.2069  -10.0233 H         1 <0>         0.4396
@<TRIPOS>BOND
     1    1    2 1
     2    1   42 1
     3    1   43 1
     4    1   44 1
     5    2    3 1
     6    3   16 ar
     7    3    4 ar
     8    4    5 ar
     9    4   45 1
    10    5   14 ar
    11    5    6 ar
    12    6   11 ar
    13    6    7 ar
    14    7    8 ar
    15    7   46 1
    16    8    9 ar
    17    8   20 1
    18    9   10 ar
    19   10   11 ar
    20   10   19 1
    21   11   12 ar
    22   12   13 ar
    23   12   47 1
    24   13   14 ar
    25   14   15 ar
    26   15   16 ar
    27   15   48 1
    28   16   17 1
    29   17   18 1
    30   18   49 1
    31   18   50 1
    32   18   51 1
    33   19   52 1
    34   19   53 1
    35   20   25 ar
    36   20   21 ar
    37   21   22 ar
    38   21   54 1
    39   22   23 ar
    40   22   26 1
    41   23   24 ar
    42   23   55 1
    43   24   25 ar
    44   25   56 1
    45   26   27 1
    46   27   28 1
    47   27   57 1
    48   27   58 1
    49   28   29 1
    50   28   30 1
    51   28   41 1
    52   30   31 1
    53   30   59 1
    54   30   60 1
    55   31   36 1
    56   31   32 2
    57   32   33 1
    58   32   61 1
    59   33   34 1
    60   33   35 1
    61   35   40 ar
    62   35   36 ar
    63   36   37 ar
    64   37   38 ar
    65   37   62 1
    66   38   39 ar
    67   38   63 1
    68   39   40 ar
    69   39   64 1
    70   40   65 1
    71   41   66 1
    72   41   67 1
    73   41   68 1
@<TRIPOS>MOLECULE
CHEMBL596073
   60    65     0     0     0
SMALL
USER_CHARGES

@<TRIPOS>ATOM
      1 C1          3.7217    0.5143   -0.9789 C.3       1 <0>        -0.0780
      2 C2          2.7505   -0.5988   -0.6808 C.2       1 <0>         0.1240
      3 C3          1.7386   -1.0672   -1.5547 C.ar      1 <0>         0.0332
      4 C4          1.0705   -2.1073   -0.8795 C.ar      1 <0>         0.0865
      5 C5          0.0118   -2.7628   -1.5086 C.ar      1 <0>        -0.0892
      6 C6         -0.3426   -2.3683   -2.7703 C.ar      1 <0>        -0.1093
      7 C7          0.3578   -1.3281   -3.3924 C.ar      1 <0>         0.1308
      8 N1          1.3590   -0.7168   -2.7833 N.ar      1 <0>        -0.3834
      9 C8         -0.0301   -0.9049   -4.7586 C.ar      1 <0>        -0.0324
     10 C9         -0.2054   -1.8492   -5.7709 C.ar      1 <0>        -0.0764
     11 C10        -0.5698   -1.4018   -7.0349 C.ar      1 <0>         0.0568
     12 C11        -0.7470   -0.0417   -7.2516 C.ar      1 <0>         0.0406
     13 N2         -0.5755    0.8302   -6.2791 N.ar      1 <0>        -0.4347
     14 C12        -0.2332    0.4529   -5.0548 C.ar      1 <0>         0.2196
     15 C13        -0.0579    1.4713   -3.9934 C.2       1 <0>        -0.1385
     16 C14         0.6112    2.7722   -4.1154 C.2       1 <0>        -0.1788
     17 C15         0.5257    3.3478   -2.9048 C.2       1 <0>        -0.0327
     18 O1         -0.1268    2.5219   -2.0727 O.3       1 <0>        -0.1736
     19 C16        -0.4886    1.3974   -2.7060 C.2       1 <0>         0.0093
     20 O2         -0.7506   -2.2874   -8.0503 O.3       1 <0>        -0.3216
     21 C17        -1.1247   -1.7505   -9.3206 C.3       1 <0>         0.0259
     22 C18        -1.2811   -2.8898  -10.3298 C.3       1 <0>         0.0433
     23 H1         -0.3636   -3.4774  -10.3595 H         1 <0>         0.1530
     24 C19        -1.5590   -2.3076  -11.7172 C.3       1 <0>        -0.0556
     25 C20        -1.5912   -3.4212  -12.7320 C.2       1 <0>        -0.2374
     26 C21        -0.5680   -3.8352  -13.4959 C.2       1 <0>         0.1040
     27 N3         -0.9721   -4.8680  -14.2973 N.pl3     1 <0>        -0.5846
     28 H2         -0.4078   -5.3317  -14.9357 H         1 <0>         0.4265
     29 C22        -2.2990   -5.1510  -14.0628 C.ar      1 <0>         0.0987
     30 C23        -2.7434   -4.2613  -13.0674 C.ar      1 <0>        -0.1170
     31 C24        -4.0640   -4.3209  -12.6192 C.ar      1 <0>        -0.1139
     32 C25        -4.9188   -5.2470  -13.1478 C.ar      1 <0>        -0.1193
     33 C26        -4.4843   -6.1295  -14.1269 C.ar      1 <0>        -0.0933
     34 C27        -3.1875   -6.0820  -14.5904 C.ar      1 <0>        -0.1111
     35 N4         -2.4012   -3.7506   -9.9267 N.4       1 <0>        -0.6362
     36 N5          1.6752   -2.2365    0.3438 N.pl3     1 <0>        -0.4925
     37 H3          1.4339   -2.8735    1.0344 H         1 <0>         0.4490
     38 N6          2.7064   -1.2922    0.4197 N.2       1 <0>        -0.2288
     39 H4          4.6219    0.0993   -1.4322 H         1 <0>         0.0864
     40 H5          3.2618    1.2231   -1.6675 H         1 <0>         0.0882
     41 H6          3.9838    1.0255   -0.0526 H         1 <0>         0.0833
     42 H7         -0.5158   -3.5635   -1.0116 H         1 <0>         0.1462
     43 H8         -1.1578   -2.8569   -3.2832 H         1 <0>         0.1459
     44 H9         -0.0611   -2.9017   -5.5768 H         1 <0>         0.1505
     45 H10        -1.0299    0.3071   -8.2338 H         1 <0>         0.1610
     46 H11         1.0776    3.1828   -4.9987 H         1 <0>         0.1532
     47 H12         0.9192    4.3190   -2.6432 H         1 <0>         0.2066
     48 H13        -1.0285    0.5714   -2.2671 H         1 <0>         0.1912
     49 H14        -2.0704   -1.2170   -9.2254 H         1 <0>         0.0923
     50 H15        -0.3527   -1.0627   -9.6659 H         1 <0>         0.1141
     51 H16        -2.5207   -1.7946  -11.7100 H         1 <0>         0.0999
     52 H17        -0.7719   -1.6003  -11.9787 H         1 <0>         0.1219
     53 H18         0.4268   -3.4151  -13.4804 H         1 <0>         0.1792
     54 H19        -4.4090   -3.6378  -11.8570 H         1 <0>         0.1150
     55 H20        -5.9404   -5.2927  -12.8007 H         1 <0>         0.1311
     56 H21        -5.1714   -6.8562  -14.5345 H         1 <0>         0.1351
     57 H22        -2.8586   -6.7738  -15.3517 H         1 <0>         0.1293
     58 H23        -2.5044   -4.5019  -10.5922 H         1 <0>         0.4379
     59 H24        -2.2180   -4.1345   -9.0118 H         1 <0>         0.4392
     60 H25        -3.2505   -3.2065   -9.8993 H         1 <0>         0.4299
@<TRIPOS>BOND
     1    1    2 1
     2    1   39 1
     3    1   40 1
     4    1   41 1
     5    2   38 2
     6    2    3 1
     7    3    8 ar
     8    3    4 ar
     9    4    5 ar
    10    4   36 1
    11    5    6 ar
    12    5   42 1
    13    6    7 ar
    14    6   43 1
    15    7    8 ar
    16    7    9 1
    17    9   14 ar
    18    9   10 ar
    19   10   11 ar
    20   10   44 1
    21   11   12 ar
    22   11   20 1
    23   12   13 ar
    24   12   45 1
    25   13   14 ar
    26   14   15 1
    27   15   19 2
    28   15   16 1
    29   16   17 2
    30   16   46 1
    31   17   18 1
    32   17   47 1
    33   18   19 1
    34   19   48 1
    35   20   21 1
    36   21   22 1
    37   21   49 1
    38   21   50 1
    39   22   23 1
    40   22   24 1
    41   22   35 1
    42   24   25 1
    43   24   51 1
    44   24   52 1
    45   25   30 1
    46   25   26 2
    47   26   27 1
    48   26   53 1
    49   27   28 1
    50   27   29 1
    51   29   34 ar
    52   29   30 ar
    53   30   31 ar
    54   31   32 ar
    55   31   54 1
    56   32   33 ar
    57   32   55 1
    58   33   34 ar
    59   33   56 1
    60   34   57 1
    61   35   58 1
    62   35   59 1
    63   35   60 1
    64   36   37 1
    65   36   38 1
@<TRIPOS>MOLECULE
CHEMBL253457
   69    75     0     0     0
SMALL
USER_CHARGES

@<TRIPOS>ATOM
      1 C1         -0.0167    1.3791    0.0096 C.ar      1 <0>        -0.1094
      2 C2          1.1686    2.0924    0.0021 C.ar      1 <0>        -0.1108
      3 C3          2.3774    1.4269   -0.0135 C.ar      1 <0>        -0.1056
      4 C4          2.4026    0.0330   -0.0212 C.ar      1 <0>        -0.0469
      5 C5          1.2049   -0.6804   -0.0131 C.ar      1 <0>        -0.1010
      6 C6          0.0021   -0.0041    0.0020 C.ar      1 <0>        -0.1209
      7 C7          3.6978   -0.6876   -0.0384 C.ar      1 <0>        -0.1176
      8 C8          4.6777   -0.3464   -0.9613 C.ar      1 <0>         0.0050
      9 C9          5.8822   -1.0592   -0.9338 C.ar      1 <0>        -0.2484
     10 C10         6.9382   -0.7816   -1.8350 C.ar      1 <0>         0.4948
     11 N1          8.0479   -1.5039   -1.7418 N.ar      1 <0>        -0.5949
     12 C11         8.1732   -2.4588   -0.8351 C.ar      1 <0>         0.3860
     13 N2          7.2281   -2.7591    0.0241 N.ar      1 <0>        -0.5458
     14 C12         6.0635   -2.0923    0.0205 C.ar      1 <0>         0.3815
     15 N3          5.0935   -2.3829    0.8857 N.ar      1 <0>        -0.4573
     16 C13         3.9493   -1.7234    0.8867 C.ar      1 <0>         0.2413
     17 C14         2.9060   -2.0823    1.8752 C.ar      1 <0>        -0.0166
     18 C15         2.0789   -1.0949    2.4100 C.ar      1 <0>        -0.0772
     19 C16         1.1089   -1.4354    3.3304 C.ar      1 <0>        -0.1013
     20 C17         0.9560   -2.7531    3.7229 C.ar      1 <0>        -0.1484
     21 C18         1.7734   -3.7371    3.1960 C.ar      1 <0>        -0.0975
     22 C19         2.7431   -3.4098    2.2706 C.ar      1 <0>        -0.0696
     23 C20        -0.1050   -3.1181    4.7289 C.3       1 <0>         0.0430
     24 N4         -1.3556   -3.4379    4.0276 N.4       1 <0>        -0.3842
     25 C21        -1.8526   -2.2374    3.3447 C.3       1 <0>        -0.0131
     26 C22        -3.1110   -2.5843    2.5463 C.3       1 <0>        -0.1382
     27 C23        -4.1856   -3.1120    3.5014 C.3       1 <0>        -0.0153
     28 C24        -3.6299   -4.3192    4.2624 C.3       1 <0>        -0.1481
     29 C25        -2.3522   -3.9080    4.9972 C.3       1 <0>        -0.0029
     30 C26        -5.4001   -3.5290    2.7126 C.2       1 <0>         0.2692
     31 N5         -5.5700   -4.7462    2.1282 N.pl3     1 <0>        -0.5954
     32 H1         -4.9420   -5.4852    2.1459 H         1 <0>         0.4214
     33 C27        -6.8023   -4.7343    1.5058 C.ar      1 <0>         0.0816
     34 C28        -7.5179   -5.6624    0.7614 C.ar      1 <0>        -0.1564
     35 C29        -8.7616   -5.3273    0.2649 C.ar      1 <0>         0.1354
     36 C30        -9.2994   -4.0687    0.5060 C.ar      1 <0>        -0.1537
     37 C31        -8.6078   -3.1444    1.2361 C.ar      1 <0>        -0.0263
     38 C32        -7.3473   -3.4624    1.7487 C.ar      1 <0>         0.0332
     39 N6         -6.4412   -2.7798    2.4958 N.2       1 <0>        -0.4640
     40 F1         -9.4601   -6.2282   -0.4602 F         1 <0>        -0.1263
     41 N7          6.8171    0.2107   -2.7832 N.pl3     1 <0>        -0.8101
     42 H2         -0.9603    1.9042    0.0260 H         1 <0>         0.1269
     43 H3          1.1478    3.1722    0.0082 H         1 <0>         0.1302
     44 H4          3.3021    1.9848   -0.0200 H         1 <0>         0.1268
     45 H5          1.2183   -1.7603   -0.0194 H         1 <0>         0.1200
     46 H6         -0.9264   -0.5557    0.0079 H         1 <0>         0.1223
     47 H7          4.5154    0.4444   -1.6787 H         1 <0>         0.1456
     48 H8          9.0966   -3.0178   -0.8007 H         1 <0>         0.2088
     49 H9          2.1976   -0.0658    2.1046 H         1 <0>         0.1442
     50 H10         0.4681   -0.6716    3.7455 H         1 <0>         0.1362
     51 H11         1.6494   -4.7640    3.5066 H         1 <0>         0.1363
     52 H12         3.3775   -4.1795    1.8563 H         1 <0>         0.1441
     53 H13         0.2215   -3.9853    5.3030 H         1 <0>         0.1401
     54 H14        -0.2712   -2.2778    5.4029 H         1 <0>         0.1389
     55 H15        -2.0910   -1.4722    4.0835 H         1 <0>         0.1358
     56 H16        -1.0856   -1.8612    2.6678 H         1 <0>         0.1386
     57 H17        -3.4795   -1.6913    2.0415 H         1 <0>         0.1230
     58 H18        -2.8737   -3.3493    1.8070 H         1 <0>         0.0889
     59 H19        -4.4601   -2.3298    4.2091 H         1 <0>         0.1274
     60 H20        -4.3693   -4.6662    4.9842 H         1 <0>         0.1223
     61 H21        -3.4033   -5.1202    3.5587 H         1 <0>         0.0867
     62 H22        -1.9541   -4.7652    5.5402 H         1 <0>         0.1381
     63 H23        -2.5799   -3.1072    5.7007 H         1 <0>         0.1369
     64 H24        -7.1034   -6.6414    0.5714 H         1 <0>         0.1396
     65 H25       -10.2734   -3.8189    0.1120 H         1 <0>         0.1502
     66 H26        -9.0349   -2.1691    1.4173 H         1 <0>         0.1461
     67 H27         6.0000    0.7303   -2.8398 H         1 <0>         0.4141
     68 H28         7.5490    0.3897   -3.3941 H         1 <0>         0.4207
     69 H29        -1.1824   -4.1622    3.3468 H         1 <0>         0.4219
@<TRIPOS>BOND
     1    1    6 ar
     2    1    2 ar
     3    1   42 1
     4    2    3 ar
     5    2   43 1
     6    3    4 ar
     7    3   44 1
     8    4    5 ar
     9    4    7 1
    10    5    6 ar
    11    5   45 1
    12    6   46 1
    13    7   16 ar
    14    7    8 ar
    15    8    9 ar
    16    8   47 1
    17    9   14 ar
    18    9   10 ar
    19   10   11 ar
    20   10   41 1
    21   11   12 ar
    22   12   13 ar
    23   12   48 1
    24   13   14 ar
    25   14   15 ar
    26   15   16 ar
    27   16   17 1
    28   17   22 ar
    29   17   18 ar
    30   18   19 ar
    31   18   49 1
    32   19   20 ar
    33   19   50 1
    34   20   21 ar
    35   20   23 1
    36   21   22 ar
    37   21   51 1
    38   22   52 1
    39   23   24 1
    40   23   53 1
    41   23   54 1
    42   24   29 1
    43   24   25 1
    44   24   69 1
    45   25   26 1
    46   25   55 1
    47   25   56 1
    48   26   27 1
    49   26   57 1
    50   26   58 1
    51   27   28 1
    52   27   30 1
    53   27   59 1
    54   28   29 1
    55   28   60 1
    56   28   61 1
    57   29   62 1
    58   29   63 1
    59   30   39 2
    60   30   31 1
    61   31   32 1
    62   31   33 1
    63   33   38 ar
    64   33   34 ar
    65   34   35 ar
    66   34   64 1
    67   35   36 ar
    68   35   40 1
    69   36   37 ar
    70   36   65 1
    71   37   38 ar
    72   37   66 1
    73   38   39 1
    74   41   67 1
    75   41   68 1
@<TRIPOS>MOLECULE
CHEMBL470410
   48    51     0     0     0
SMALL
USER_CHARGES

@<TRIPOS>ATOM
      1 C1          0.4500    1.6250   -0.0473 C.3       1 <0>        -0.0485
      2 N1          0.2955    0.1647   -0.0082 N.4       1 <0>        -0.5085
      3 C2         -1.1311   -0.1746    0.0784 C.3       1 <0>        -0.0211
      4 C3         -1.2920   -1.6956    0.1192 C.3       1 <0>         0.1729
      5 C4         -2.7433   -2.0417    0.3313 C.ar      1 <0>        -0.1220
      6 C5         -3.2906   -1.9791    1.5992 C.ar      1 <0>        -0.1108
      7 C6         -4.6218   -2.2966    1.7938 C.ar      1 <0>        -0.1095
      8 C7         -5.4059   -2.6762    0.7205 C.ar      1 <0>        -0.0951
      9 C8         -4.8589   -2.7379   -0.5475 C.ar      1 <0>        -0.1092
     10 C9         -3.5287   -2.4163   -0.7428 C.ar      1 <0>        -0.0941
     11 N2         -0.4938   -2.2418    1.2195 N.am      1 <0>        -0.7316
     12 C10         0.8129   -2.5145    1.0335 C.2       1 <0>         0.6119
     13 O1          1.3298   -2.3070   -0.0487 O.2       1 <0>        -0.5332
     14 C11         1.6115   -3.0610    2.1343 C.2       1 <0>        -0.2765
     15 C12         2.9568   -3.4005    2.1504 C.2       1 <0>        -0.0188
     16 C13         3.4945   -3.8980    3.3042 C.2       1 <0>        -0.1491
     17 C14         2.6737   -4.0437    4.4132 C.2       1 <0>        -0.0147
     18 S1          1.1045   -3.4530    3.8005 S.3       1 <0>         0.1727
     19 C15         3.0122   -4.5513    5.7558 C.ar      1 <0>         0.0351
     20 C16         4.1430   -4.0923    6.4382 C.ar      1 <0>        -0.1481
     21 C17         4.4228   -4.5951    7.6949 C.ar      1 <0>         0.1415
     22 N3          3.6526   -5.4967    8.2684 N.ar      1 <0>        -0.4754
     23 C18         2.5658   -5.9737    7.6756 C.ar      1 <0>         0.2909
     24 C19         2.2037   -5.5112    6.3971 C.ar      1 <0>        -0.1241
     25 C20         0.9762   -6.2162    6.0379 C.2       1 <0>        -0.2114
     26 C21         0.6732   -7.0227    7.0697 C.2       1 <0>         0.0887
     27 N4          1.6185   -6.8963    8.0515 N.pl3     1 <0>        -0.5766
     28 H1          1.6138   -7.3775    8.8937 H         1 <0>         0.4274
     29 Br1         5.3214   -4.3791    3.3871 Br        1 <0>         0.0017
     30 H2          1.5086    1.8768   -0.1115 H         1 <0>         0.1280
     31 H3         -0.0715    2.0224   -0.9181 H         1 <0>         0.1268
     32 H4          0.0276    2.0595    0.8587 H         1 <0>         0.1228
     33 H5          0.6866   -0.2375   -0.8469 H         1 <0>         0.4377
     34 H6         -1.5536    0.2598    0.9844 H         1 <0>         0.1372
     35 H7         -1.6526    0.2227   -0.7924 H         1 <0>         0.1501
     36 H8         -0.9508   -2.1225   -0.8240 H         1 <0>         0.1272
     37 H9         -2.6780   -1.6825    2.4377 H         1 <0>         0.1212
     38 H10        -5.0492   -2.2484    2.7845 H         1 <0>         0.1329
     39 H11        -6.4458   -2.9249    0.8727 H         1 <0>         0.1332
     40 H12        -5.4714   -3.0348   -1.3860 H         1 <0>         0.1343
     41 H13        -3.1023   -2.4609   -1.7340 H         1 <0>         0.1306
     42 H14        -0.9058   -2.4072    2.0820 H         1 <0>         0.4152
     43 H15         3.5670   -3.2745    1.2683 H         1 <0>         0.1608
     44 H16         4.7903   -3.3539    5.9886 H         1 <0>         0.1462
     45 H17         5.2966   -4.2395    8.2206 H         1 <0>         0.1735
     46 H18         0.4183   -6.1095    5.1194 H         1 <0>         0.1501
     47 H19        -0.1828   -7.6798    7.1132 H         1 <0>         0.1863
     48 H20         0.7783   -0.2031    0.7979 H         1 <0>         0.4214
@<TRIPOS>BOND
     1    1    2 1
     2    1   30 1
     3    1   31 1
     4    1   32 1
     5    2    3 1
     6    2   33 1
     7    2   48 1
     8    3    4 1
     9    3   34 1
    10    3   35 1
    11    4    5 1
    12    4   11 1
    13    4   36 1
    14    5   10 ar
    15    5    6 ar
    16    6    7 ar
    17    6   37 1
    18    7    8 ar
    19    7   38 1
    20    8    9 ar
    21    8   39 1
    22    9   10 ar
    23    9   40 1
    24   10   41 1
    25   11   12 am
    26   11   42 1
    27   12   13 2
    28   12   14 1
    29   14   18 1
    30   14   15 2
    31   15   16 1
    32   15   43 1
    33   16   17 2
    34   16   29 1
    35   17   18 1
    36   17   19 1
    37   19   24 ar
    38   19   20 ar
    39   20   21 ar
    40   20   44 1
    41   21   22 ar
    42   21   45 1
    43   22   23 ar
    44   23   27 1
    45   23   24 ar
    46   24   25 1
    47   25   26 2
    48   25   46 1
    49   26   27 1
    50   26   47 1
    51   27   28 1
@<TRIPOS>MOLECULE
CHEMBL470410
   48    51     0     0     0
SMALL
USER_CHARGES

@<TRIPOS>ATOM
      1 C1         -0.4675    1.2485   -0.0157 C.3       1 <0>        -0.0485
      2 N1         -0.2706   -0.2070    0.0123 N.4       1 <0>        -0.5085
      3 C2         -1.5756   -0.8760    0.0976 C.3       1 <0>        -0.0210
      4 C3         -1.3706   -2.3920    0.1268 C.3       1 <0>         0.1729
      5 C4         -2.7104   -3.0809    0.0904 C.ar      1 <0>        -0.1222
      6 C5         -3.3764   -3.2341   -1.1112 C.ar      1 <0>        -0.1107
      7 C6         -4.6054   -3.8660   -1.1446 C.ar      1 <0>        -0.1096
      8 C7         -5.1682   -4.3451    0.0236 C.ar      1 <0>        -0.0951
      9 C8         -4.5018   -4.1927    1.2251 C.ar      1 <0>        -0.1092
     10 C9         -3.2708   -3.5646    1.2578 C.ar      1 <0>        -0.0941
     11 N2         -0.5798   -2.8002   -1.0369 N.am      1 <0>        -0.7317
     12 C10         0.7661   -2.7472   -0.9893 C.2       1 <0>         0.6119
     13 O1          1.3245   -2.3601    0.0205 O.2       1 <0>        -0.5332
     14 C11         1.5572   -3.1557   -2.1536 C.2       1 <0>        -0.2768
     15 C12         2.9364   -3.1812   -2.3048 C.2       1 <0>        -0.0188
     16 C13         3.4585   -3.6055   -3.4943 C.2       1 <0>        -0.1491
     17 C14         2.5888   -3.9939   -4.5032 C.2       1 <0>        -0.0150
     18 S1          0.9938   -3.7554   -3.7378 S.3       1 <0>         0.1734
     19 C15         2.9020   -4.4834   -5.8586 C.ar      1 <0>         0.0350
     20 C16         3.8591   -5.4819   -6.0632 C.ar      1 <0>        -0.1466
     21 C17         4.1214   -5.9111   -7.3506 C.ar      1 <0>         0.1428
     22 N3          3.4938   -5.4044   -8.3920 N.ar      1 <0>        -0.4754
     23 C18         2.5754   -4.4553   -8.2670 C.ar      1 <0>         0.2905
     24 C19         2.2425   -3.9648   -6.9910 C.ar      1 <0>        -0.1243
     25 C20         1.2106   -2.9521   -7.1969 C.2       1 <0>        -0.2122
     26 C21         0.9816   -2.8916   -8.5200 C.2       1 <0>         0.0881
     27 N4          1.7960   -3.7765   -9.1735 N.pl3     1 <0>        -0.5767
     28 H1          1.8119   -3.9135  -10.1337 H         1 <0>         0.4274
     29 Br1         5.3298   -3.6617   -3.7603 Br        1 <0>         0.0017
     30 H2          0.5009    1.7450   -0.0790 H         1 <0>         0.1279
     31 H3         -1.0708    1.5170   -0.8829 H         1 <0>         0.1229
     32 H4         -0.9785    1.5636    0.8941 H         1 <0>         0.1268
     33 H5          0.2024   -0.4986   -0.8299 H         1 <0>         0.4214
     34 H6         -2.0867   -0.5610    1.0074 H         1 <0>         0.1501
     35 H7         -2.1790   -0.6076   -0.7696 H         1 <0>         0.1373
     36 H8         -0.8438   -2.6699    1.0397 H         1 <0>         0.1272
     37 H9         -2.9367   -2.8598   -2.0239 H         1 <0>         0.1212
     38 H10        -5.1261   -3.9851   -2.0833 H         1 <0>         0.1330
     39 H11        -6.1288   -4.8382   -0.0024 H         1 <0>         0.1332
     40 H12        -4.9417   -4.5667    2.1378 H         1 <0>         0.1343
     41 H13        -2.7485   -3.4488    2.1960 H         1 <0>         0.1307
     42 H14        -1.0249   -3.1087   -1.8417 H         1 <0>         0.4152
     43 H15         3.5845   -2.8714   -1.4983 H         1 <0>         0.1609
     44 H16         4.3874   -5.9124   -5.2254 H         1 <0>         0.1470
     45 H17         4.8610   -6.6825   -7.5070 H         1 <0>         0.1742
     46 H18         0.7240   -2.3646   -6.4323 H         1 <0>         0.1488
     47 H19         0.2687   -2.2354   -8.9971 H         1 <0>         0.1855
     48 H20         0.2879   -0.4555    0.8151 H         1 <0>         0.4377
@<TRIPOS>BOND
     1    1    2 1
     2    1   30 1
     3    1   31 1
     4    1   32 1
     5    2    3 1
     6    2   33 1
     7    2   48 1
     8    3    4 1
     9    3   34 1
    10    3   35 1
    11    4    5 1
    12    4   11 1
    13    4   36 1
    14    5   10 ar
    15    5    6 ar
    16    6    7 ar
    17    6   37 1
    18    7    8 ar
    19    7   38 1
    20    8    9 ar
    21    8   39 1
    22    9   10 ar
    23    9   40 1
    24   10   41 1
    25   11   12 am
    26   11   42 1
    27   12   13 2
    28   12   14 1
    29   14   18 1
    30   14   15 2
    31   15   16 1
    32   15   43 1
    33   16   17 2
    34   16   29 1
    35   17   18 1
    36   17   19 1
    37   19   24 ar
    38   19   20 ar
    39   20   21 ar
    40   20   44 1
    41   21   22 ar
    42   21   45 1
    43   22   23 ar
    44   23   27 1
    45   23   24 ar
    46   24   25 1
    47   25   26 2
    48   25   46 1
    49   26   27 1
    50   26   47 1
    51   27   28 1
@<TRIPOS>MOLECULE
CHEMBL252259
   62    66     0     0     0
SMALL
USER_CHARGES

@<TRIPOS>ATOM
      1 C1         -0.0225    1.8097    0.0120 C.3       1 <0>        -0.1500
      2 S1          0.0021   -0.0041    0.0020 S.3       1 <0>         0.0355
      3 C2          0.8767   -0.4266    1.4721 C.ar      1 <0>         0.3290
      4 N1          1.3174    0.5551    2.2576 N.ar      1 <0>        -0.5253
      5 C3          1.9766    0.3014    3.3689 C.ar      1 <0>         0.2416
      6 C4          2.2114   -1.0411    3.7185 C.ar      1 <0>        -0.2286
      7 C5          2.9053   -1.3920    4.8864 C.ar      1 <0>         0.0130
      8 C6          3.0909   -2.7406    5.1528 C.ar      1 <0>        -0.1139
      9 C7          2.5820   -3.7021    4.2518 C.ar      1 <0>         0.2397
     10 N2          1.9327   -3.3451    3.1593 N.ar      1 <0>        -0.4542
     11 C8          1.7278   -2.0628    2.8584 C.ar      1 <0>         0.3672
     12 N3          1.0636   -1.7028    1.7525 N.ar      1 <0>        -0.4860
     13 C9          2.7816   -5.1415    4.5386 C.ar      1 <0>        -0.0076
     14 C10         3.9528   -5.5760    5.1591 C.ar      1 <0>        -0.0771
     15 C11         4.1327   -6.9181    5.4241 C.ar      1 <0>        -0.0947
     16 C12         3.1545   -7.8322    5.0753 C.ar      1 <0>        -0.1630
     17 C13         1.9909   -7.4074    4.4592 C.ar      1 <0>        -0.0953
     18 C14         1.7967   -6.0672    4.1946 C.ar      1 <0>        -0.0715
     19 C15         3.3576   -9.2966    5.3671 C.3       1 <0>         0.0474
     20 N4          2.8280   -9.6080    6.7015 N.4       1 <0>        -0.5094
     21 C16         3.0259  -11.0356    6.9860 C.3       1 <0>        -0.0070
     22 C17         2.4742  -11.3599    8.3757 C.3       1 <0>        -0.1763
     23 C18         2.6804  -12.8467    8.6720 C.3       1 <0>         0.1005
     24 N5          2.1522  -13.1573   10.0027 N.pl3     1 <0>        -0.4198
     25 C19         2.8413  -13.0991   11.1840 C.2       1 <0>         0.0222
     26 C20         1.9814  -13.4616   12.1549 C.2       1 <0>         0.0152
     27 N6          0.7995  -13.7338   11.5821 N.pl3     1 <0>        -0.4704
     28 C21         0.8929  -13.5488   10.2937 C.cat     1 <0>         0.2929
     29 C22         3.8172   -3.1690    6.3720 C.ar      1 <0>        -0.0478
     30 C23         3.2649   -4.1343    7.2126 C.ar      1 <0>        -0.1024
     31 C24         3.9459   -4.5295    8.3460 C.ar      1 <0>        -0.1224
     32 C25         5.1740   -3.9694    8.6488 C.ar      1 <0>        -0.1105
     33 C26         5.7270   -3.0112    7.8184 C.ar      1 <0>        -0.1092
     34 C27         5.0579   -2.6123    6.6792 C.ar      1 <0>        -0.1017
     35 H1          1.0001    2.1870    0.0043 H         1 <0>         0.0945
     36 H2         -0.5497    2.1708   -0.8711 H         1 <0>         0.1196
     37 H3         -0.5327    2.1613    0.9088 H         1 <0>         0.0943
     38 H4          2.3293    1.1056    3.9977 H         1 <0>         0.1894
     39 H5          3.2838   -0.6351    5.5574 H         1 <0>         0.1587
     40 H6          4.7174   -4.8634    5.4312 H         1 <0>         0.1461
     41 H7          5.0391   -7.2558    5.9044 H         1 <0>         0.1357
     42 H8          1.2311   -8.1257    4.1890 H         1 <0>         0.1363
     43 H9          0.8860   -5.7362    3.7177 H         1 <0>         0.1455
     44 H10         2.8331   -9.8921    4.6199 H         1 <0>         0.1425
     45 H11         4.4220   -9.5292    5.3353 H         1 <0>         0.1423
     46 H12         3.3135   -9.0567    7.3931 H         1 <0>         0.4299
     47 H13         2.5014  -11.6311    6.2388 H         1 <0>         0.1428
     48 H14         4.0903  -11.2682    6.9542 H         1 <0>         0.1429
     49 H15         2.9988  -10.7644    9.1229 H         1 <0>         0.1052
     50 H16         1.4098  -11.1273    8.4075 H         1 <0>         0.1032
     51 H17         2.1559  -13.4422    7.9248 H         1 <0>         0.1321
     52 H18         3.7448  -13.0793    8.6402 H         1 <0>         0.1347
     53 H19         3.8758  -12.8170   11.3126 H         1 <0>         0.2261
     54 H20         2.2043  -13.5226   13.2099 H         1 <0>         0.2281
     55 H21         0.0960  -13.6882    9.5783 H         1 <0>         0.2623
     56 H22         2.3059   -4.5717    6.9776 H         1 <0>         0.1190
     57 H23         3.5191   -5.2772    8.9980 H         1 <0>         0.1198
     58 H24         5.7030   -4.2813    9.5372 H         1 <0>         0.1262
     59 H25         6.6860   -2.5771    8.0600 H         1 <0>         0.1321
     60 H26         5.4926   -1.8673    6.0293 H         1 <0>         0.1303
     61 H27         1.8426   -9.3927    6.7309 H         1 <0>         0.4299
     62 H28         0.0003  -14.0194   12.0519 H         1 <0>         0.4704
@<TRIPOS>BOND
     1    1    2 1
     2    1   35 1
     3    1   36 1
     4    1   37 1
     5    2    3 1
     6    3   12 ar
     7    3    4 ar
     8    4    5 ar
     9    5    6 ar
    10    5   38 1
    11    6   11 ar
    12    6    7 ar
    13    7    8 ar
    14    7   39 1
    15    8    9 ar
    16    8   29 1
    17    9   10 ar
    18    9   13 1
    19   10   11 ar
    20   11   12 ar
    21   13   18 ar
    22   13   14 ar
    23   14   15 ar
    24   14   40 1
    25   15   16 ar
    26   15   41 1
    27   16   17 ar
    28   16   19 1
    29   17   18 ar
    30   17   42 1
    31   18   43 1
    32   19   20 1
    33   19   44 1
    34   19   45 1
    35   20   21 1
    36   20   46 1
    37   20   61 1
    38   21   22 1
    39   21   47 1
    40   21   48 1
    41   22   23 1
    42   22   49 1
    43   22   50 1
    44   23   24 1
    45   23   51 1
    46   23   52 1
    47   24   28 1
    48   24   25 1
    49   25   26 2
    50   25   53 1
    51   26   27 1
    52   26   54 1
    53   27   28 2
    54   27   62 1
    55   28   55 1
    56   29   34 ar
    57   29   30 ar
    58   30   31 ar
    59   30   56 1
    60   31   32 ar
    61   31   57 1
    62   32   33 ar
    63   32   58 1
    64   33   34 ar
    65   33   59 1
    66   34   60 1
@<TRIPOS>MOLECULE
CHEMBL252259
   61    65     0     0     0
SMALL
USER_CHARGES

@<TRIPOS>ATOM
      1 C1         -0.0225    1.8097    0.0120 C.3       1 <0>        -0.1491
      2 S1          0.0021   -0.0041    0.0020 S.3       1 <0>         0.0311
      3 C2         -1.7016   -0.4536    0.0159 C.ar      1 <0>         0.3274
      4 N1         -2.6174    0.5141    0.0243 N.ar      1 <0>        -0.5272
      5 C3         -3.9053    0.2400    0.0344 C.ar      1 <0>         0.2404
      6 C4         -4.3044   -1.1092    0.0361 C.ar      1 <0>        -0.2284
      7 C5         -5.6573   -1.4815    0.0460 C.ar      1 <0>         0.0096
      8 C6         -5.9597   -2.8353    0.0465 C.ar      1 <0>        -0.1092
      9 C7         -4.9101   -3.7806    0.0372 C.ar      1 <0>         0.2450
     10 N2         -3.6450   -3.4035    0.0283 N.ar      1 <0>        -0.4553
     11 C8         -3.3020   -2.1154    0.0269 C.ar      1 <0>         0.3663
     12 N3         -2.0179   -1.7350    0.0120 N.ar      1 <0>        -0.4846
     13 C9         -5.2358   -5.2255    0.0378 C.ar      1 <0>        -0.0160
     14 C10        -6.3516   -5.6914    0.7329 C.ar      1 <0>        -0.0772
     15 C11        -6.6501   -7.0385    0.7294 C.ar      1 <0>        -0.0958
     16 C12        -5.8450   -7.9265    0.0386 C.ar      1 <0>        -0.1550
     17 C13        -4.7366   -7.4705   -0.6524 C.ar      1 <0>        -0.0960
     18 C14        -4.4313   -6.1249   -0.6615 C.ar      1 <0>        -0.0704
     19 C15        -6.1764   -9.3966    0.0392 C.3       1 <0>         0.0458
     20 N4         -7.0625   -9.6993   -1.0927 N.4       1 <0>        -0.5088
     21 C16        -7.3856  -11.1323   -1.0921 C.3       1 <0>        -0.0063
     22 C17        -8.3084  -11.4476   -2.2710 C.3       1 <0>        -0.1701
     23 C18        -8.6449  -12.9401   -2.2704 C.3       1 <0>         0.1127
     24 N5         -9.5285  -13.2420   -3.3992 N.pl3     1 <0>        -0.4710
     25 C19       -10.8969  -13.2057   -3.3919 C.2       1 <0>        -0.0611
     26 C20       -11.3024  -13.5498   -4.6291 C.2       1 <0>        -0.0167
     27 N6        -10.2114  -13.7896   -5.3716 N.2       1 <0>        -0.4854
     28 C21        -9.1451  -13.6023   -4.6429 C.2       1 <0>         0.1839
     29 C22        -7.3718   -3.2860    0.0573 C.ar      1 <0>        -0.0507
     30 C23        -7.8088   -4.2401   -0.8605 C.ar      1 <0>        -0.1001
     31 C24        -9.1245   -4.6562   -0.8454 C.ar      1 <0>        -0.1204
     32 C25       -10.0092   -4.1282    0.0777 C.ar      1 <0>        -0.1089
     33 C26        -9.5813   -3.1812    0.9908 C.ar      1 <0>        -0.1112
     34 C27        -8.2666   -2.7617    0.9890 C.ar      1 <0>        -0.1030
     35 H1          1.0001    2.1870    0.0043 H         1 <0>         0.1180
     36 H2         -0.5497    2.1708   -0.8711 H         1 <0>         0.0936
     37 H3         -0.5327    2.1613    0.9088 H         1 <0>         0.0935
     38 H4         -4.6386    1.0328    0.0415 H         1 <0>         0.1884
     39 H5         -6.4393   -0.7367    0.0534 H         1 <0>         0.1581
     40 H6         -6.9805   -4.9992    1.2732 H         1 <0>         0.1449
     41 H7         -7.5139   -7.4005    1.2673 H         1 <0>         0.1361
     42 H8         -4.1117   -8.1686   -1.1895 H         1 <0>         0.1372
     43 H9         -3.5683   -5.7695   -1.2049 H         1 <0>         0.1443
     44 H10        -5.2579   -9.9762   -0.0533 H         1 <0>         0.1410
     45 H11        -6.6772   -9.6558    0.9721 H         1 <0>         0.1404
     46 H12        -7.9127   -9.1628   -1.0071 H         1 <0>         0.4285
     47 H13        -6.4671  -11.7119   -1.1846 H         1 <0>         0.1380
     48 H14        -7.8863  -11.3915   -0.1593 H         1 <0>         0.1372
     49 H15        -9.2269  -10.8680   -2.1785 H         1 <0>         0.0959
     50 H16        -7.8077  -11.1884   -3.2038 H         1 <0>         0.0967
     51 H17        -7.7264  -13.5197   -2.3629 H         1 <0>         0.1049
     52 H18        -9.1457  -13.1993   -1.3375 H         1 <0>         0.1025
     53 H19       -11.5297  -12.9505   -2.5547 H         1 <0>         0.1770
     54 H20       -12.3265  -13.6202   -4.9647 H         1 <0>         0.1741
     55 H21        -8.1251  -13.7188   -4.9782 H         1 <0>         0.2064
     56 H22        -7.1192   -4.6525   -1.5821 H         1 <0>         0.1203
     57 H23        -9.4642   -5.3953   -1.5559 H         1 <0>         0.1230
     58 H24       -11.0381   -4.4564    0.0854 H         1 <0>         0.1269
     59 H25       -10.2765   -2.7723    1.7090 H         1 <0>         0.1309
     60 H26        -7.9325   -2.0256    1.7052 H         1 <0>         0.1287
     61 H27        -6.5989   -9.4594   -1.9562 H         1 <0>         0.4293
@<TRIPOS>BOND
     1    1    2 1
     2    1   35 1
     3    1   36 1
     4    1   37 1
     5    2    3 1
     6    3   12 ar
     7    3    4 ar
     8    4    5 ar
     9    5    6 ar
    10    5   38 1
    11    6   11 ar
    12    6    7 ar
    13    7    8 ar
    14    7   39 1
    15    8    9 ar
    16    8   29 1
    17    9   10 ar
    18    9   13 1
    19   10   11 ar
    20   11   12 ar
    21   13   18 ar
    22   13   14 ar
    23   14   15 ar
    24   14   40 1
    25   15   16 ar
    26   15   41 1
    27   16   17 ar
    28   16   19 1
    29   17   18 ar
    30   17   42 1
    31   18   43 1
    32   19   20 1
    33   19   44 1
    34   19   45 1
    35   20   21 1
    36   20   46 1
    37   20   61 1
    38   21   22 1
    39   21   47 1
    40   21   48 1
    41   22   23 1
    42   22   49 1
    43   22   50 1
    44   23   24 1
    45   23   51 1
    46   23   52 1
    47   24   28 1
    48   24   25 1
    49   25   26 2
    50   25   53 1
    51   26   27 1
    52   26   54 1
    53   27   28 2
    54   28   55 1
    55   29   34 ar
    56   29   30 ar
    57   30   31 ar
    58   30   56 1
    59   31   32 ar
    60   31   57 1
    61   32   33 ar
    62   32   58 1
    63   33   34 ar
    64   33   59 1
    65   34   60 1
@<TRIPOS>MOLECULE
CHEMBL210740
   56    60     0     0     0
SMALL
USER_CHARGES

@<TRIPOS>ATOM
      1 C1         -0.0184    1.5028    0.0103 C.3       1 <0>        -0.0807
      2 C2          0.0021   -0.0041    0.0020 C.2       1 <0>         0.1088
      3 C3          0.0083   -0.8581   -1.1820 C.ar      1 <0>        -0.1763
      4 C4         -0.0019   -0.6082   -2.5573 C.ar      1 <0>        -0.0084
      5 C5          0.0079   -1.6738   -3.4431 C.ar      1 <0>        -0.1060
      6 C6          0.0279   -2.9891   -2.9631 C.ar      1 <0>        -0.0534
      7 C7          0.0380   -3.2410   -1.6234 C.ar      1 <0>        -0.1371
      8 C8          0.0285   -2.1860   -0.7124 C.ar      1 <0>         0.1440
      9 N1          0.0337   -2.1193    0.6566 N.pl3     1 <0>        -0.5045
     10 H1          0.0468   -2.8812    1.2569 H         1 <0>         0.4443
     11 N2          0.0230   -0.7772    1.0497 N.2       1 <0>        -0.2435
     12 C9         -0.0034   -1.4202   -4.9053 C.ar      1 <0>        -0.0272
     13 C10         0.0004   -2.4846   -5.8096 C.ar      1 <0>        -0.1015
     14 C11        -0.0110   -2.1940   -7.1677 C.ar      1 <0>         0.0700
     15 C12        -0.0257   -0.8671   -7.5756 C.ar      1 <0>         0.0161
     16 N3         -0.0289    0.1132   -6.6940 N.ar      1 <0>        -0.4368
     17 C13        -0.0238   -0.1167   -5.3969 C.ar      1 <0>         0.0812
     18 O1         -0.0074   -3.1961   -8.0859 O.3       1 <0>        -0.3230
     19 C14        -0.0198   -2.8144   -9.4629 C.3       1 <0>         0.0278
     20 C15        -0.0136   -4.0682  -10.3397 C.3       1 <0>         0.0432
     21 H2          0.8359   -4.6958  -10.0703 H         1 <0>         0.1562
     22 C16         0.0989   -3.6615  -11.8104 C.3       1 <0>        -0.0991
     23 C17         0.2286   -4.8962  -12.6646 C.ar      1 <0>        -0.1157
     24 C18         1.4945   -5.4091  -12.9420 C.ar      1 <0>        -0.1210
     25 C19         1.6467   -6.5221  -13.7103 C.ar      1 <0>        -0.0787
     26 C20         0.5125   -7.1667  -14.2328 C.ar      1 <0>        -0.0475
     27 C21         0.6298   -8.3184  -15.0297 C.ar      1 <0>        -0.1051
     28 C22        -0.4910   -8.9162  -15.5182 C.ar      1 <0>        -0.1030
     29 C23        -1.7569   -8.4035  -15.2405 C.ar      1 <0>        -0.0992
     30 C24        -1.9090   -7.2902  -14.4726 C.ar      1 <0>        -0.1161
     31 C25        -0.7747   -6.6454  -13.9504 C.ar      1 <0>        -0.0503
     32 C26        -0.8924   -5.4970  -13.1489 C.ar      1 <0>        -0.1200
     33 N4         -1.2605   -4.8167  -10.1327 N.4       1 <0>        -0.6373
     34 H3          1.0042    1.8801    0.0026 H         1 <0>         0.0878
     35 H4         -0.5455    1.8639   -0.8728 H         1 <0>         0.0842
     36 H5         -0.5286    1.8543    0.9071 H         1 <0>         0.0843
     37 H6         -0.0177    0.4067   -2.9264 H         1 <0>         0.1366
     38 H7          0.0350   -3.8127   -3.6617 H         1 <0>         0.1317
     39 H8          0.0531   -4.2604   -1.2670 H         1 <0>         0.1332
     40 H9          0.0123   -3.5071   -5.4619 H         1 <0>         0.1476
     41 H10        -0.0343   -0.6345   -8.6302 H         1 <0>         0.1566
     42 H11        -0.0314    0.7142   -4.7071 H         1 <0>         0.1669
     43 H12        -0.9167   -2.2306   -9.6700 H         1 <0>         0.0927
     44 H13         0.8631   -2.2138   -9.6814 H         1 <0>         0.1146
     45 H14        -0.7936   -3.1088  -12.1038 H         1 <0>         0.1042
     46 H15         0.9777   -3.0313  -11.9469 H         1 <0>         0.1270
     47 H16         2.3678   -4.9156  -12.5417 H         1 <0>         0.1307
     48 H17         2.6340   -6.9077  -13.9175 H         1 <0>         0.1364
     49 H18         1.6043   -8.7267  -15.2534 H         1 <0>         0.1346
     50 H19        -0.3980   -9.8009  -16.1306 H         1 <0>         0.1322
     51 H20        -2.6302   -8.8969  -15.6409 H         1 <0>         0.1312
     52 H21        -2.8962   -6.9041  -14.2660 H         1 <0>         0.1304
     53 H22        -1.8671   -5.0911  -12.9218 H         1 <0>         0.1263
     54 H23        -2.0469   -4.2358  -10.3821 H         1 <0>         0.4322
     55 H24        -1.2564   -5.6436  -10.7110 H         1 <0>         0.4363
     56 H25        -1.3347   -5.0850   -9.1628 H         1 <0>         0.4424
@<TRIPOS>BOND
     1    1    2 1
     2    1   34 1
     3    1   35 1
     4    1   36 1
     5    2   11 2
     6    2    3 1
     7    3    8 ar
     8    3    4 ar
     9    4    5 ar
    10    4   37 1
    11    5    6 ar
    12    5   12 1
    13    6    7 ar
    14    6   38 1
    15    7    8 ar
    16    7   39 1
    17    8    9 1
    18    9   10 1
    19    9   11 1
    20   12   17 ar
    21   12   13 ar
    22   13   14 ar
    23   13   40 1
    24   14   15 ar
    25   14   18 1
    26   15   16 ar
    27   15   41 1
    28   16   17 ar
    29   17   42 1
    30   18   19 1
    31   19   20 1
    32   19   43 1
    33   19   44 1
    34   20   21 1
    35   20   22 1
    36   20   33 1
    37   22   23 1
    38   22   45 1
    39   22   46 1
    40   23   32 ar
    41   23   24 ar
    42   24   25 ar
    43   24   47 1
    44   25   26 ar
    45   25   48 1
    46   26   31 ar
    47   26   27 ar
    48   27   28 ar
    49   27   49 1
    50   28   29 ar
    51   28   50 1
    52   29   30 ar
    53   29   51 1
    54   30   31 ar
    55   30   52 1
    56   31   32 ar
    57   32   53 1
    58   33   54 1
    59   33   55 1
    60   33   56 1
@<TRIPOS>MOLECULE
CHEMBL211774
   74    79     0     0     0
SMALL
USER_CHARGES

@<TRIPOS>ATOM
      1 C1         -0.2948    1.6557   -0.2153 C.3       1 <0>        -0.1428
      2 C2         -0.0610    0.1464   -0.1257 C.3       1 <0>        -0.0250
      3 C3          0.8737   -0.1562    1.0472 C.3       1 <0>        -0.1539
      4 C4         -1.3982   -0.5648    0.0913 C.3       1 <0>        -0.0763
      5 C5         -2.0871    0.0179    1.2983 C.ar      1 <0>         0.1374
      6 C6         -3.3490    0.5663    1.1663 C.ar      1 <0>        -0.1692
      7 C7         -3.9739    1.0997    2.2829 C.ar      1 <0>        -0.0718
      8 C8         -3.3031    1.0614    3.4960 C.ar      1 <0>        -0.1783
      9 C9         -2.0431    0.4970    3.5512 C.ar      1 <0>         0.0987
     10 N1         -1.4812   -0.0060    2.4692 N.ar      1 <0>        -0.4766
     11 C10         0.5752   -0.3493   -1.4259 C.3       1 <0>        -0.0770
     12 C11         1.8520    0.4072   -1.7128 C.ar      1 <0>        -0.1223
     13 C12         3.0384    0.5282   -1.0294 C.ar      1 <0>        -0.0445
     14 C13         4.0635    1.3160   -1.5533 C.ar      1 <0>        -0.0838
     15 C14         3.8735    1.9742   -2.7675 C.ar      1 <0>        -0.0646
     16 C15         2.6821    1.8479   -3.4459 C.ar      1 <0>        -0.1377
     17 C16         1.6554    1.0606   -2.9242 C.ar      1 <0>         0.1650
     18 N2          0.3808    0.7844   -3.4189 N.am      1 <0>        -0.6604
     19 C17        -0.3152   -0.0295   -2.6077 C.2       1 <0>         0.5342
     20 O1         -1.4448   -0.4325   -2.7883 O.2       1 <0>        -0.4839
     21 C18         5.3474    1.4531   -0.8227 C.ar      1 <0>        -0.0332
     22 C19         6.3760    2.2450   -1.3388 C.ar      1 <0>        -0.0989
     23 C20         7.5583    2.3404   -0.6164 C.ar      1 <0>         0.0697
     24 C21         7.6759    1.6513    0.5832 C.ar      1 <0>         0.0191
     25 N3          6.6845    0.9122    1.0406 N.ar      1 <0>        -0.4369
     26 C22         5.5438    0.7984    0.3916 C.ar      1 <0>         0.0848
     27 O2          8.5876    3.0985   -1.0781 O.3       1 <0>        -0.3229
     28 C23         9.7697    3.1448   -0.2766 C.3       1 <0>         0.0264
     29 C24        10.8096    4.0404   -0.9528 C.3       1 <0>         0.0434
     30 H1         10.9870    3.6880   -1.9689 H         1 <0>         0.1528
     31 C25        12.1175    3.9914   -0.1604 C.3       1 <0>        -0.0556
     32 C26        13.1775    4.7743   -0.8915 C.2       1 <0>        -0.2375
     33 C27        14.0863    4.2814   -1.7476 C.2       1 <0>         0.1040
     34 N4         14.8833    5.2909   -2.2145 N.pl3     1 <0>        -0.5846
     35 H2         15.6120    5.1794   -2.8450 H         1 <0>         0.4265
     36 C28        14.4970    6.4887   -1.6560 C.ar      1 <0>         0.0987
     37 C29        13.4074    6.2186   -0.8076 C.ar      1 <0>        -0.1171
     38 C30        12.7983    7.2588   -0.1035 C.ar      1 <0>        -0.1141
     39 C31        13.2621    8.5365   -0.2450 C.ar      1 <0>        -0.1191
     40 C32        14.3338    8.8087   -1.0836 C.ar      1 <0>        -0.0932
     41 C33        14.9557    7.7958   -1.7808 C.ar      1 <0>        -0.1110
     42 N5         10.3133    5.4225   -0.9935 N.4       1 <0>        -0.6363
     43 H3          0.6579    2.1624   -0.3699 H         1 <0>         0.0587
     44 H4         -0.9607    1.8713   -1.0509 H         1 <0>         0.0496
     45 H5         -0.7480    2.0089    0.7110 H         1 <0>         0.0612
     46 H6          0.4608    0.2718    1.9607 H         1 <0>         0.0939
     47 H7          0.9725   -1.2354    1.1640 H         1 <0>         0.0585
     48 H8          1.8537    0.2794    0.8525 H         1 <0>         0.0526
     49 H9         -2.0286   -0.4292   -0.7876 H         1 <0>         0.0986
     50 H10        -1.2223   -1.6285    0.2516 H         1 <0>         0.0870
     51 H11        -3.8418    0.5793    0.2054 H         1 <0>         0.1332
     52 H12        -4.9596    1.5350    2.2097 H         1 <0>         0.1341
     53 H13        -3.7596    1.4680    4.3863 H         1 <0>         0.1341
     54 H14        -1.5141    0.4633    4.4921 H         1 <0>         0.1556
     55 H15         0.7676   -1.4208   -1.3715 H         1 <0>         0.1302
     56 H16         3.1764    0.0149   -0.0892 H         1 <0>         0.1417
     57 H17         4.6637    2.5857   -3.1774 H         1 <0>         0.1325
     58 H18         2.5417    2.3608   -4.3858 H         1 <0>         0.1334
     59 H19         0.0363    1.1396   -4.2531 H         1 <0>         0.4163
     60 H20         6.2551    2.7692   -2.2753 H         1 <0>         0.1477
     61 H21         8.5927    1.7214    1.1496 H         1 <0>         0.1574
     62 H22         4.7541    0.1869    0.8026 H         1 <0>         0.1665
     63 H23         9.5267    3.5484    0.7063 H         1 <0>         0.0920
     64 H24        10.1736    2.1384   -0.1664 H         1 <0>         0.1139
     65 H25        11.9608    4.4261    0.8268 H         1 <0>         0.0999
     66 H26        12.4394    2.9554   -0.0542 H         1 <0>         0.1218
     67 H27        14.1755    3.2418   -2.0264 H         1 <0>         0.1791
     68 H28        11.9634    7.0545    0.5504 H         1 <0>         0.1149
     69 H29        12.7905    9.3409    0.3000 H         1 <0>         0.1311
     70 H30        14.6885    9.8237   -1.1856 H         1 <0>         0.1352
     71 H31        15.7882    8.0179   -2.4319 H         1 <0>         0.1294
     72 H32        10.9991    6.0131   -1.4394 H         1 <0>         0.4380
     73 H33         9.4508    5.4548   -1.5161 H         1 <0>         0.4391
     74 H34        10.1491    5.7487   -0.0529 H         1 <0>         0.4300
@<TRIPOS>BOND
     1    1    2 1
     2    1   43 1
     3    1   44 1
     4    1   45 1
     5    2    3 1
     6    2    4 1
     7    2   11 1
     8    3   46 1
     9    3   47 1
    10    3   48 1
    11    4    5 1
    12    4   49 1
    13    4   50 1
    14    5   10 ar
    15    5    6 ar
    16    6    7 ar
    17    6   51 1
    18    7    8 ar
    19    7   52 1
    20    8    9 ar
    21    8   53 1
    22    9   10 ar
    23    9   54 1
    24   11   19 1
    25   11   12 1
    26   11   55 1
    27   12   17 ar
    28   12   13 ar
    29   13   14 ar
    30   13   56 1
    31   14   15 ar
    32   14   21 1
    33   15   16 ar
    34   15   57 1
    35   16   17 ar
    36   16   58 1
    37   17   18 1
    38   18   19 am
    39   18   59 1
    40   19   20 2
    41   21   26 ar
    42   21   22 ar
    43   22   23 ar
    44   22   60 1
    45   23   24 ar
    46   23   27 1
    47   24   25 ar
    48   24   61 1
    49   25   26 ar
    50   26   62 1
    51   27   28 1
    52   28   29 1
    53   28   63 1
    54   28   64 1
    55   29   30 1
    56   29   31 1
    57   29   42 1
    58   31   32 1
    59   31   65 1
    60   31   66 1
    61   32   37 1
    62   32   33 2
    63   33   34 1
    64   33   67 1
    65   34   35 1
    66   34   36 1
    67   36   41 ar
    68   36   37 ar
    69   37   38 ar
    70   38   39 ar
    71   38   68 1
    72   39   40 ar
    73   39   69 1
    74   40   41 ar
    75   40   70 1
    76   41   71 1
    77   42   72 1
    78   42   73 1
    79   42   74 1
@<TRIPOS>MOLECULE
CHEMBL211774
   74    79     0     0     0
SMALL
USER_CHARGES

@<TRIPOS>ATOM
      1 C1         -0.2713    1.6555   -0.1400 C.3       1 <0>        -0.1478
      2 C2         -0.0748    0.1387   -0.0991 C.3       1 <0>        -0.0260
      3 C3          0.7084   -0.2403    1.1594 C.3       1 <0>        -0.1467
      4 C4         -1.4399   -0.5520   -0.0776 C.3       1 <0>        -0.0705
      5 C5         -2.2609   -0.0068    1.0625 C.ar      1 <0>         0.1378
      6 C6         -3.4936    0.5632    0.8053 C.ar      1 <0>        -0.1706
      7 C7         -4.2408    1.0617    1.8611 C.ar      1 <0>        -0.0713
      8 C8         -3.7179    0.9679    3.1421 C.ar      1 <0>        -0.1786
      9 C9         -2.4782    0.3848    3.3222 C.ar      1 <0>         0.0999
     10 N1         -1.7973   -0.0839    2.2945 N.ar      1 <0>        -0.4773
     11 C10         0.7035   -0.3084   -1.3381 C.3       1 <0>        -0.0768
     12 C11         2.0934    0.2858   -1.3335 C.ar      1 <0>        -0.1227
     13 C12         2.5546    1.5804   -1.3553 C.ar      1 <0>        -0.0449
     14 C13         3.9274    1.8280   -1.3440 C.ar      1 <0>        -0.0848
     15 C14         4.8195    0.7572   -1.3106 C.ar      1 <0>        -0.0639
     16 C15         4.3494   -0.5367   -1.2889 C.ar      1 <0>        -0.1379
     17 C16         2.9771   -0.7871   -1.3001 C.ar      1 <0>         0.1678
     18 N2          2.2725   -1.9907   -1.2835 N.am      1 <0>        -0.6604
     19 C17         0.9424   -1.8029   -1.3038 C.2       1 <0>         0.5358
     20 O1          0.0926   -2.6682   -1.2961 O.2       1 <0>        -0.4828
     21 C18         4.4348    3.2219   -1.3680 C.ar      1 <0>        -0.0322
     22 C19         5.8083    3.4769   -1.3626 C.ar      1 <0>        -0.0990
     23 C20         6.2319    4.7993   -1.3857 C.ar      1 <0>         0.0702
     24 C21         5.2838    5.8132   -1.4130 C.ar      1 <0>         0.0187
     25 N3          3.9948    5.5363   -1.4169 N.ar      1 <0>        -0.4372
     26 C22         3.5487    4.2968   -1.4019 C.ar      1 <0>         0.0837
     27 O2          7.5580    5.0973   -1.3811 O.3       1 <0>        -0.3227
     28 C23         7.9120    6.4815   -1.4060 C.3       1 <0>         0.0264
     29 C24         9.4358    6.6185   -1.3966 C.3       1 <0>         0.0434
     30 H1          9.8437    6.0809   -0.5406 H         1 <0>         0.1529
     31 C25         9.8143    8.0976   -1.2974 C.3       1 <0>        -0.0555
     32 C26        11.3100    8.2256   -1.1646 C.2       1 <0>        -0.2376
     33 C27        12.0037    8.3327   -0.0204 C.2       1 <0>         0.1040
     34 N4         13.3411    8.4298   -0.2929 N.pl3     1 <0>        -0.5845
     35 H2         14.0407    8.5163    0.3734 H         1 <0>         0.4265
     36 C28        13.5458    8.3865   -1.6538 C.ar      1 <0>         0.0988
     37 C29        12.2831    8.2503   -2.2593 C.ar      1 <0>        -0.1171
     38 C30        12.1818    8.1736   -3.6494 C.ar      1 <0>        -0.1141
     39 C31        13.3119    8.2277   -4.4159 C.ar      1 <0>        -0.1191
     40 C32        14.5601    8.3579   -3.8234 C.ar      1 <0>        -0.0932
     41 C33        14.6822    8.4447   -2.4536 C.ar      1 <0>        -0.1110
     42 N5          9.9858    6.0544   -2.6365 N.4       1 <0>        -0.6363
     43 H3          0.7012    2.1475   -0.1553 H         1 <0>         0.0628
     44 H4         -0.8293    1.9255   -1.0366 H         1 <0>         0.0601
     45 H5         -0.8258    1.9740    0.7427 H         1 <0>         0.0621
     46 H6          0.2208    0.1900    2.0342 H         1 <0>         0.0917
     47 H7          0.7369   -1.3256    1.2566 H         1 <0>         0.0495
     48 H8          1.7254    0.1446    1.0842 H         1 <0>         0.0476
     49 H9         -1.9564   -0.3653   -1.0191 H         1 <0>         0.0821
     50 H10        -1.3021   -1.6252    0.0546 H         1 <0>         0.0987
     51 H11        -3.8697    0.6198   -0.2055 H         1 <0>         0.1336
     52 H12        -5.2071    1.5128    1.6901 H         1 <0>         0.1344
     53 H13        -4.2724    1.3462    3.9881 H         1 <0>         0.1342
     54 H14        -2.0640    0.3079    4.3167 H         1 <0>         0.1550
     55 H15         0.1689   -0.0278   -2.2456 H         1 <0>         0.1281
     56 H16         1.8561    2.4037   -1.3816 H         1 <0>         0.1389
     57 H17         5.8833    0.9432   -1.3021 H         1 <0>         0.1325
     58 H18         5.0462   -1.3615   -1.2634 H         1 <0>         0.1336
     59 H19         2.6947   -2.8637   -1.2603 H         1 <0>         0.4165
     60 H20         6.5222    2.6667   -1.3408 H         1 <0>         0.1480
     61 H21         5.6069    6.8436   -1.4311 H         1 <0>         0.1574
     62 H22         2.4847    4.1119   -1.4108 H         1 <0>         0.1656
     63 H23         7.5112    6.9429   -2.3086 H         1 <0>         0.0920
     64 H24         7.4971    6.9784   -0.5290 H         1 <0>         0.1138
     65 H25         9.4835    8.6183   -2.1960 H         1 <0>         0.0998
     66 H26         9.3330    8.5381   -0.4243 H         1 <0>         0.1218
     67 H27        11.5703    8.3412    0.9689 H         1 <0>         0.1791
     68 H28        11.2138    8.0715   -4.1174 H         1 <0>         0.1149
     69 H29        13.2330    8.1683   -5.4914 H         1 <0>         0.1312
     70 H30        15.4441    8.3986   -4.4425 H         1 <0>         0.1352
     71 H31        15.6581    8.5447   -2.0019 H         1 <0>         0.1294
     72 H32        10.9907    6.1447   -2.6303 H         1 <0>         0.4381
     73 H33         9.7361    5.0789   -2.7019 H         1 <0>         0.4392
     74 H34         9.6082    6.5520   -3.4289 H         1 <0>         0.4299
@<TRIPOS>BOND
     1    1    2 1
     2    1   43 1
     3    1   44 1
     4    1   45 1
     5    2    3 1
     6    2    4 1
     7    2   11 1
     8    3   46 1
     9    3   47 1
    10    3   48 1
    11    4    5 1
    12    4   49 1
    13    4   50 1
    14    5   10 ar
    15    5    6 ar
    16    6    7 ar
    17    6   51 1
    18    7    8 ar
    19    7   52 1
    20    8    9 ar
    21    8   53 1
    22    9   10 ar
    23    9   54 1
    24   11   19 1
    25   11   12 1
    26   11   55 1
    27   12   17 ar
    28   12   13 ar
    29   13   14 ar
    30   13   56 1
    31   14   15 ar
    32   14   21 1
    33   15   16 ar
    34   15   57 1
    35   16   17 ar
    36   16   58 1
    37   17   18 1
    38   18   19 am
    39   18   59 1
    40   19   20 2
    41   21   26 ar
    42   21   22 ar
    43   22   23 ar
    44   22   60 1
    45   23   24 ar
    46   23   27 1
    47   24   25 ar
    48   24   61 1
    49   25   26 ar
    50   26   62 1
    51   27   28 1
    52   28   29 1
    53   28   63 1
    54   28   64 1
    55   29   30 1
    56   29   31 1
    57   29   42 1
    58   31   32 1
    59   31   65 1
    60   31   66 1
    61   32   37 1
    62   32   33 2
    63   33   34 1
    64   33   67 1
    65   34   35 1
    66   34   36 1
    67   36   41 ar
    68   36   37 ar
    69   37   38 ar
    70   38   39 ar
    71   38   68 1
    72   39   40 ar
    73   39   69 1
    74   40   41 ar
    75   40   70 1
    76   41   71 1
    77   42   72 1
    78   42   73 1
    79   42   74 1
@<TRIPOS>MOLECULE
CHEMBL1204096
   64    67     0     0     0
SMALL
USER_CHARGES

@<TRIPOS>ATOM
      1 C1         -2.5647    1.5339    2.3088 C.3       1 <0>         0.0224
      2 O1         -2.6311    0.1087    2.3893 O.3       1 <0>        -0.3045
      3 C2         -2.5330   -0.5811    1.2208 C.ar      1 <0>         0.0936
      4 C3         -2.3704    0.1037    0.0242 C.ar      1 <0>        -0.1461
      5 C4         -2.2696   -0.5865   -1.1686 C.ar      1 <0>        -0.1107
      6 C5         -2.3306   -1.9705   -1.1807 C.ar      1 <0>         0.1330
      7 C6         -2.4948   -2.6722    0.0238 C.ar      1 <0>        -0.1797
      8 C7         -2.5899   -1.9649    1.2290 C.ar      1 <0>         0.1159
      9 F1         -2.7427   -2.6300    2.3950 F         1 <0>        -0.1181
     10 C8         -2.5611   -4.1430    0.0209 C.2       1 <0>         0.4559
     11 O2         -1.5399   -4.7978    0.1017 O.2       1 <0>        -0.4129
     12 C9         -3.8710   -4.8245   -0.0803 C.ar      1 <0>        -0.1115
     13 C10        -5.0323   -4.0777   -0.2878 C.ar      1 <0>        -0.0707
     14 C11        -6.2517   -4.7121   -0.3825 C.ar      1 <0>        -0.0597
     15 C12        -6.3261   -6.1019   -0.2709 C.ar      1 <0>        -0.1068
     16 C13        -5.1648   -6.8487   -0.0633 C.ar      1 <0>        -0.0707
     17 C14        -3.9448   -6.2147    0.0261 C.ar      1 <0>        -0.0714
     18 C15        -7.6352   -6.7829   -0.3720 C.2       1 <0>         0.5180
     19 O3         -8.6453   -6.1333   -0.5521 O.2       1 <0>        -0.4891
     20 O4         -7.7069   -8.1236   -0.2643 O.3       1 <0>        -0.3321
     21 C16        -9.0035   -8.7146   -0.3717 C.3       1 <0>         0.0659
     22 H1         -9.6178   -8.0928   -1.0230 H         1 <0>         0.1018
     23 C17        -9.6331   -8.7511    0.9963 C.3       1 <0>        -0.1575
     24 C18       -11.1662   -8.5907    0.8558 C.3       1 <0>        -0.1544
     25 C19       -11.7811   -9.8222    0.3691 C.3       1 <0>        -0.0077
     26 N1        -11.3204  -10.2254   -0.9710 N.4       1 <0>        -0.4982
     27 C20       -10.1046  -10.9886   -0.8051 C.3       1 <0>        -0.0325
     28 C21        -8.8599  -10.1096   -1.0111 C.3       1 <0>         0.1346
     29 N2         -7.7001  -10.7831   -0.4217 N.am      1 <0>        -0.7122
     30 C22        -7.0589  -11.7479   -1.1106 C.2       1 <0>         0.5719
     31 O5         -7.4429  -12.0591   -2.2207 O.2       1 <0>        -0.5159
     32 C23        -5.8860  -12.4289   -0.5145 C.ar      1 <0>        -0.1004
     33 C24        -5.4314  -12.0902    0.7636 C.ar      1 <0>        -0.1425
     34 C25        -4.3342  -12.7511    1.2812 C.ar      1 <0>         0.1035
     35 N3         -3.7189  -13.6878    0.5873 N.ar      1 <0>        -0.4582
     36 C26        -4.1147  -14.0375   -0.6204 C.ar      1 <0>         0.1062
     37 C27        -5.2066  -13.4323   -1.2120 C.ar      1 <0>        -0.1106
     38 O6         -2.2322   -2.6458   -2.3538 O.3       1 <0>        -0.4875
     39 H2         -2.6553    1.9589    3.3084 H         1 <0>         0.1096
     40 H3         -1.6099    1.8291    1.8736 H         1 <0>         0.0625
     41 H4         -3.3782    1.9008    1.6829 H         1 <0>         0.0620
     42 H5         -2.3228    1.1826    0.0256 H         1 <0>         0.1519
     43 H6         -2.1433   -0.0452   -2.0946 H         1 <0>         0.1506
     44 H7         -4.9748   -3.0026   -0.3738 H         1 <0>         0.1436
     45 H8         -7.1500   -4.1344   -0.5427 H         1 <0>         0.1480
     46 H9         -5.2223   -7.9237    0.0231 H         1 <0>         0.1442
     47 H10        -3.0459   -6.7928    0.1822 H         1 <0>         0.1484
     48 H11        -9.4090   -9.7043    1.4749 H         1 <0>         0.0903
     49 H12        -9.2358   -7.9364    1.6017 H         1 <0>         0.1046
     50 H13       -11.5900   -8.3394    1.8280 H         1 <0>         0.1284
     51 H14       -11.3786   -7.7836    0.1547 H         1 <0>         0.0970
     52 H15       -11.5557  -10.6250    1.0711 H         1 <0>         0.1335
     53 H16       -12.8618   -9.6834    0.3387 H         1 <0>         0.1383
     54 H17       -12.0235  -10.7947   -1.4176 H         1 <0>         0.4421
     55 H18       -10.0807  -11.4078    0.2008 H         1 <0>         0.1401
     56 H19       -10.0921  -11.8023   -1.5302 H         1 <0>         0.1489
     57 H20        -8.6889   -9.9905   -2.0811 H         1 <0>         0.1239
     58 H21        -7.3936  -10.5347    0.4645 H         1 <0>         0.4153
     59 H22        -5.9303  -11.3232    1.3374 H         1 <0>         0.1374
     60 H23        -3.9755  -12.4965    2.2675 H         1 <0>         0.1669
     61 H24        -3.5804  -14.8102   -1.1531 H         1 <0>         0.1698
     62 H25        -5.5281  -13.7270   -2.2000 H         1 <0>         0.1511
     63 H26        -1.3226   -2.8136   -2.6359 H         1 <0>         0.4016
     64 H27       -11.1364   -9.4061   -1.5304 H         1 <0>         0.4288
@<TRIPOS>BOND
     1    1    2 1
     2    1   39 1
     3    1   40 1
     4    1   41 1
     5    2    3 1
     6    3    8 ar
     7    3    4 ar
     8    4    5 ar
     9    4   42 1
    10    5    6 ar
    11    5   43 1
    12    6    7 ar
    13    6   38 1
    14    7    8 ar
    15    7   10 1
    16    8    9 1
    17   10   11 2
    18   10   12 1
    19   12   17 ar
    20   12   13 ar
    21   13   14 ar
    22   13   44 1
    23   14   15 ar
    24   14   45 1
    25   15   16 ar
    26   15   18 1
    27   16   17 ar
    28   16   46 1
    29   17   47 1
    30   18   19 2
    31   18   20 1
    32   20   21 1
    33   21   22 1
    34   21   28 1
    35   21   23 1
    36   23   24 1
    37   23   48 1
    38   23   49 1
    39   24   25 1
    40   24   50 1
    41   24   51 1
    42   25   26 1
    43   25   52 1
    44   25   53 1
    45   26   27 1
    46   26   54 1
    47   26   64 1
    48   27   28 1
    49   27   55 1
    50   27   56 1
    51   28   29 1
    52   28   57 1
    53   29   30 am
    54   29   58 1
    55   30   31 2
    56   30   32 1
    57   32   37 ar
    58   32   33 ar
    59   33   34 ar
    60   33   59 1
    61   34   35 ar
    62   34   60 1
    63   35   36 ar
    64   36   37 ar
    65   36   61 1
    66   37   62 1
    67   38   63 1
@<TRIPOS>MOLECULE
CHEMBL1204096
   64    67     0     0     0
SMALL
USER_CHARGES

@<TRIPOS>ATOM
      1 C1         -2.5647    1.5339    2.3088 C.3       1 <0>         0.0224
      2 O1         -2.6311    0.1087    2.3893 O.3       1 <0>        -0.3045
      3 C2         -2.5330   -0.5811    1.2208 C.ar      1 <0>         0.0937
      4 C3         -2.3704    0.1037    0.0242 C.ar      1 <0>        -0.1461
      5 C4         -2.2696   -0.5865   -1.1686 C.ar      1 <0>        -0.1106
      6 C5         -2.3306   -1.9705   -1.1807 C.ar      1 <0>         0.1330
      7 C6         -2.4948   -2.6722    0.0238 C.ar      1 <0>        -0.1796
      8 C7         -2.5899   -1.9649    1.2290 C.ar      1 <0>         0.1158
      9 F1         -2.7427   -2.6300    2.3950 F         1 <0>        -0.1182
     10 C8         -2.5611   -4.1430    0.0209 C.2       1 <0>         0.4560
     11 O2         -1.5399   -4.7978    0.1017 O.2       1 <0>        -0.4134
     12 C9         -3.8710   -4.8245   -0.0803 C.ar      1 <0>        -0.1119
     13 C10        -5.0323   -4.0777   -0.2878 C.ar      1 <0>        -0.0708
     14 C11        -6.2517   -4.7121   -0.3825 C.ar      1 <0>        -0.0599
     15 C12        -6.3261   -6.1019   -0.2709 C.ar      1 <0>        -0.1069
     16 C13        -5.1648   -6.8487   -0.0633 C.ar      1 <0>        -0.0711
     17 C14        -3.9448   -6.2147    0.0261 C.ar      1 <0>        -0.0717
     18 C15        -7.6352   -6.7829   -0.3720 C.2       1 <0>         0.5147
     19 O3         -8.6453   -6.1333   -0.5521 O.2       1 <0>        -0.4861
     20 O4         -7.7069   -8.1236   -0.2643 O.3       1 <0>        -0.3323
     21 C16        -9.0035   -8.7146   -0.3717 C.3       1 <0>         0.0672
     22 H1         -9.6248   -8.0986   -1.0219 H         1 <0>         0.1070
     23 C17        -9.6498   -8.7822    1.0345 C.3       1 <0>        -0.1467
     24 C18       -11.1271   -9.0268    0.8792 C.3       1 <0>        -0.1440
     25 C19       -11.5071  -10.5184    0.8925 C.3       1 <0>        -0.0107
     26 N1        -10.5917  -11.3686    0.1016 N.4       1 <0>        -0.5000
     27 C20       -10.2284  -10.7499   -1.1502 C.3       1 <0>        -0.0230
     28 C21        -8.8762  -10.0457   -0.9521 C.3       1 <0>         0.1305
     29 N2         -8.2113   -9.9309   -2.2524 N.am      1 <0>        -0.7180
     30 C22        -7.5323  -10.9801   -2.7571 C.2       1 <0>         0.5754
     31 O5         -7.4718  -12.0213   -2.1336 O.2       1 <0>        -0.5207
     32 C23        -6.8599  -10.8639   -4.0721 C.ar      1 <0>        -0.1026
     33 C24        -6.9122   -9.6733   -4.8032 C.ar      1 <0>        -0.1417
     34 C25        -6.2705   -9.6087   -6.0249 C.ar      1 <0>         0.1046
     35 N3         -5.6168  -10.6491   -6.5019 N.ar      1 <0>        -0.4571
     36 C26        -5.5428  -11.7897   -5.8454 C.ar      1 <0>         0.1058
     37 C27        -6.1504  -11.9401   -4.6138 C.ar      1 <0>        -0.1099
     38 O6         -2.2322   -2.6458   -2.3538 O.3       1 <0>        -0.4874
     39 H2         -2.6553    1.9589    3.3084 H         1 <0>         0.1095
     40 H3         -1.6099    1.8291    1.8736 H         1 <0>         0.0624
     41 H4         -3.3782    1.9008    1.6829 H         1 <0>         0.0620
     42 H5         -2.3228    1.1826    0.0256 H         1 <0>         0.1519
     43 H6         -2.1433   -0.0452   -2.0946 H         1 <0>         0.1507
     44 H7         -4.9748   -3.0026   -0.3738 H         1 <0>         0.1436
     45 H8         -7.1500   -4.1344   -0.5427 H         1 <0>         0.1484
     46 H9         -5.2223   -7.9237    0.0231 H         1 <0>         0.1446
     47 H10        -3.0459   -6.7928    0.1822 H         1 <0>         0.1480
     48 H11        -9.2025   -9.5973    1.6033 H         1 <0>         0.0856
     49 H12        -9.4887   -7.8388    1.5563 H         1 <0>         0.1073
     50 H13       -11.6513   -8.5258    1.6930 H         1 <0>         0.1205
     51 H14       -11.4557   -8.5913   -0.0644 H         1 <0>         0.0922
     52 H15       -11.5053  -10.8696    1.9244 H         1 <0>         0.1371
     53 H16       -12.5154  -10.6250    0.4924 H         1 <0>         0.1364
     54 H17        -9.7548  -11.5385    0.6390 H         1 <0>         0.4285
     55 H18       -10.1383  -11.5109   -1.9253 H         1 <0>         0.1479
     56 H19       -10.9866  -10.0204   -1.4348 H         1 <0>         0.1438
     57 H20        -8.2552  -10.6560   -0.2964 H         1 <0>         0.1195
     58 H21        -8.2596   -9.0997   -2.7502 H         1 <0>         0.4134
     59 H22        -7.4465   -8.8170   -4.4188 H         1 <0>         0.1360
     60 H23        -6.3052   -8.6933   -6.5970 H         1 <0>         0.1674
     61 H24        -4.9965  -12.6168   -6.2743 H         1 <0>         0.1703
     62 H25        -6.0818  -12.8760   -4.0793 H         1 <0>         0.1513
     63 H26        -1.3226   -2.8136   -2.6359 H         1 <0>         0.4014
     64 H27       -11.0438  -12.2507   -0.0871 H         1 <0>         0.4388
@<TRIPOS>BOND
     1    1    2 1
     2    1   39 1
     3    1   40 1
     4    1   41 1
     5    2    3 1
     6    3    8 ar
     7    3    4 ar
     8    4    5 ar
     9    4   42 1
    10    5    6 ar
    11    5   43 1
    12    6    7 ar
    13    6   38 1
    14    7    8 ar
    15    7   10 1
    16    8    9 1
    17   10   11 2
    18   10   12 1
    19   12   17 ar
    20   12   13 ar
    21   13   14 ar
    22   13   44 1
    23   14   15 ar
    24   14   45 1
    25   15   16 ar
    26   15   18 1
    27   16   17 ar
    28   16   46 1
    29   17   47 1
    30   18   19 2
    31   18   20 1
    32   20   21 1
    33   21   22 1
    34   21   28 1
    35   21   23 1
    36   23   24 1
    37   23   48 1
    38   23   49 1
    39   24   25 1
    40   24   50 1
    41   24   51 1
    42   25   26 1
    43   25   52 1
    44   25   53 1
    45   26   27 1
    46   26   54 1
    47   26   64 1
    48   27   28 1
    49   27   55 1
    50   27   56 1
    51   28   29 1
    52   28   57 1
    53   29   30 am
    54   29   58 1
    55   30   31 2
    56   30   32 1
    57   32   37 ar
    58   32   33 ar
    59   33   34 ar
    60   33   59 1
    61   34   35 ar
    62   34   60 1
    63   35   36 ar
    64   36   37 ar
    65   36   61 1
    66   37   62 1
    67   38   63 1
@<TRIPOS>MOLECULE
CHEMBL1204095
   65    68     0     0     0
SMALL
USER_CHARGES

@<TRIPOS>ATOM
      1 C1         -2.5641    1.5328    2.3105 C.3       1 <0>         0.0226
      2 O1         -2.6310    0.1076    2.3903 O.3       1 <0>        -0.3049
      3 C2         -2.5326   -0.5817    1.2215 C.ar      1 <0>         0.0931
      4 C3         -2.3693    0.1035    0.0255 C.ar      1 <0>        -0.1483
      5 C4         -2.2683   -0.5864   -1.1675 C.ar      1 <0>        -0.1114
      6 C5         -2.3296   -1.9704   -1.1799 C.ar      1 <0>         0.1313
      7 C6         -2.4944   -2.6722    0.0238 C.ar      1 <0>        -0.1754
      8 C7         -2.5899   -1.9656    1.2290 C.ar      1 <0>         0.1146
      9 F1         -2.7428   -2.6314    2.3946 F         1 <0>        -0.1185
     10 C8         -2.5607   -4.1438    0.0205 C.2       1 <0>         0.4563
     11 O2         -1.5389   -4.7988    0.1013 O.2       1 <0>        -0.4233
     12 C9         -3.8673   -4.8236   -0.0810 C.ar      1 <0>        -0.1458
     13 C10        -5.0304   -4.0759   -0.2888 C.ar      1 <0>        -0.0578
     14 C11        -6.2434   -4.7076   -0.3829 C.ar      1 <0>        -0.1128
     15 C12        -6.3176   -6.0986   -0.2712 C.ar      1 <0>        -0.0422
     16 C13        -5.1554   -6.8463   -0.0635 C.ar      1 <0>        -0.1214
     17 C14        -3.9412   -6.2159    0.0250 C.ar      1 <0>        -0.0550
     18 C15        -7.6243   -6.7784   -0.3721 C.2       1 <0>        -0.0927
     19 C16        -7.6949   -8.0994   -0.2661 C.2       1 <0>        -0.1611
     20 C17        -9.0287   -8.7933   -0.3691 C.3       1 <0>        -0.0752
     21 H1         -9.8044   -8.0445   -0.5291 H         1 <0>         0.0905
     22 C18        -9.3118   -9.5305    0.9555 C.3       1 <0>        -0.1190
     23 C19       -10.4040  -10.6037    0.7901 C.3       1 <0>        -0.1555
     24 C20       -11.5277  -10.1165   -0.0899 C.3       1 <0>        -0.0086
     25 N1        -11.2802  -10.5938   -1.4644 N.4       1 <0>        -0.4840
     26 C21       -10.4089   -9.7758   -2.1859 C.3       1 <0>        -0.0507
     27 C22        -9.0022   -9.7290   -1.5506 C.3       1 <0>         0.1445
     28 H2         -8.7168  -10.7273   -1.2188 H         1 <0>         0.1156
     29 N2         -8.0351   -9.2439   -2.5383 N.am      1 <0>        -0.7152
     30 C23        -7.4634  -10.1065   -3.4018 C.2       1 <0>         0.5709
     31 O3         -7.7503  -11.2866   -3.3611 O.2       1 <0>        -0.5224
     32 C24        -6.4854   -9.6159   -4.4006 C.ar      1 <0>        -0.1027
     33 C25        -6.1369   -8.2632   -4.4606 C.ar      1 <0>        -0.1405
     34 C26        -5.2202   -7.8491   -5.4075 C.ar      1 <0>         0.1046
     35 N3         -4.6776   -8.7094   -6.2459 N.ar      1 <0>        -0.4574
     36 C27        -4.9782   -9.9926   -6.2234 C.ar      1 <0>         0.1050
     37 C28        -5.8808  -10.4937   -5.3054 C.ar      1 <0>        -0.1113
     38 O4         -2.2310   -2.6455   -2.3532 O.3       1 <0>        -0.4875
     39 H3         -2.6550    1.9573    3.3103 H         1 <0>         0.1092
     40 H4         -1.6091    1.8280    1.8759 H         1 <0>         0.0622
     41 H5         -3.3773    1.9002    1.6845 H         1 <0>         0.0615
     42 H6         -2.3214    1.1824    0.0273 H         1 <0>         0.1512
     43 H7         -2.1414   -0.0449   -2.0934 H         1 <0>         0.1497
     44 H8         -4.9731   -3.0009   -0.3748 H         1 <0>         0.1330
     45 H9         -7.1419   -4.1301   -0.5431 H         1 <0>         0.1338
     46 H10        -5.2132   -7.9212    0.0232 H         1 <0>         0.1302
     47 H11        -3.0425   -6.7942    0.1807 H         1 <0>         0.1384
     48 H12        -8.5226   -6.2007   -0.5323 H         1 <0>         0.1258
     49 H13        -6.7966   -8.6771   -0.1059 H         1 <0>         0.1268
     50 H14        -8.3942  -10.0076    1.2996 H         1 <0>         0.0891
     51 H15        -9.6357   -8.8062    1.7028 H         1 <0>         0.0904
     52 H16        -9.9630  -11.4952    0.3441 H         1 <0>         0.0867
     53 H17       -10.8046  -10.8585    1.7713 H         1 <0>         0.1152
     54 H18       -12.4762  -10.5136    0.2717 H         1 <0>         0.1420
     55 H19       -11.5569   -9.0269   -0.0790 H         1 <0>         0.1356
     56 H20       -10.8889  -11.5227   -1.4188 H         1 <0>         0.4282
     57 H21       -10.3258  -10.1573   -3.2036 H         1 <0>         0.1371
     58 H22       -10.8174   -8.7658   -2.2200 H         1 <0>         0.1344
     59 H23        -7.8061   -8.3018   -2.5707 H         1 <0>         0.4141
     60 H24        -6.5780   -7.5526   -3.7773 H         1 <0>         0.1360
     61 H25        -4.9446   -6.8062   -5.4618 H         1 <0>         0.1664
     62 H26        -4.5095  -10.6619   -6.9296 H         1 <0>         0.1696
     63 H27        -6.1189  -11.5470   -5.2897 H         1 <0>         0.1505
     64 H28        -1.3214   -2.8135   -2.6351 H         1 <0>         0.4007
     65 H29       -12.1610  -10.6400   -1.9544 H         1 <0>         0.4336
@<TRIPOS>BOND
     1    1    2 1
     2    1   39 1
     3    1   40 1
     4    1   41 1
     5    2    3 1
     6    3    8 ar
     7    3    4 ar
     8    4    5 ar
     9    4   42 1
    10    5    6 ar
    11    5   43 1
    12    6    7 ar
    13    6   38 1
    14    7    8 ar
    15    7   10 1
    16    8    9 1
    17   10   11 2
    18   10   12 1
    19   12   17 ar
    20   12   13 ar
    21   13   14 ar
    22   13   44 1
    23   14   15 ar
    24   14   45 1
    25   15   16 ar
    26   15   18 1
    27   16   17 ar
    28   16   46 1
    29   17   47 1
    30   18   19 2
    31   18   48 1
    32   19   20 1
    33   19   49 1
    34   20   21 1
    35   20   27 1
    36   20   22 1
    37   22   23 1
    38   22   50 1
    39   22   51 1
    40   23   24 1
    41   23   52 1
    42   23   53 1
    43   24   25 1
    44   24   54 1
    45   24   55 1
    46   25   26 1
    47   25   56 1
    48   25   65 1
    49   26   27 1
    50   26   57 1
    51   26   58 1
    52   27   28 1
    53   27   29 1
    54   29   30 am
    55   29   59 1
    56   30   31 2
    57   30   32 1
    58   32   37 ar
    59   32   33 ar
    60   33   34 ar
    61   33   60 1
    62   34   35 ar
    63   34   61 1
    64   35   36 ar
    65   36   37 ar
    66   36   62 1
    67   37   63 1
    68   38   64 1
@<TRIPOS>MOLECULE
CHEMBL1081853
   48    51     0     0     0
SMALL
USER_CHARGES

@<TRIPOS>ATOM
      1 C1         -0.0167    1.3781    0.0096 C.ar      1 <0>        -0.1413
      2 C2          1.1709    2.0855    0.0021 C.ar      1 <0>        -0.0582
      3 C3          2.3773    1.4107   -0.0130 C.ar      1 <0>        -0.1629
      4 C4          2.3960    0.0285   -0.0201 C.ar      1 <0>        -0.0559
      5 C5          1.2085   -0.6789   -0.0117 C.ar      1 <0>        -0.1023
      6 C6          0.0021   -0.0041    0.0020 C.ar      1 <0>        -0.0986
      7 C7         -1.2926   -0.7753    0.0107 C.3       1 <0>        -0.0995
      8 C8         -1.7450   -1.0285   -1.4288 C.3       1 <0>         0.0244
      9 H1         -0.9463   -1.5264   -1.9784 H         1 <0>         0.1551
     10 C9         -2.9907   -1.9168   -1.4231 C.3       1 <0>         0.1138
     11 N1         -3.4936   -2.0615   -2.7914 N.pl3     1 <0>        -0.7062
     12 C10        -4.6212   -2.8264   -3.0373 C.2       1 <0>         0.2795
     13 N2         -5.3661   -3.4847   -2.1731 N.2       1 <0>        -0.5613
     14 C11        -6.4190   -4.1740   -2.5639 C.2       1 <0>         0.0863
     15 C12        -6.6947   -4.1693   -3.9047 C.2       1 <0>        -0.1690
     16 S1         -5.3737   -3.1324   -4.5112 S.3       1 <0>         0.1362
     17 C13        -7.7874   -4.8345   -4.6453 C.ar      1 <0>        -0.0026
     18 C14        -8.7389   -5.6041   -3.9698 C.ar      1 <0>        -0.0614
     19 C15        -9.7571   -6.2253   -4.6465 C.ar      1 <0>        -0.1069
     20 C16        -9.8783   -6.1097   -6.0428 C.ar      1 <0>         0.1368
     21 C17        -8.9106   -5.3317   -6.6977 C.ar      1 <0>        -0.1257
     22 C18        -7.8908   -4.7005   -6.0326 C.ar      1 <0>        -0.0331
     23 S2         -9.3989   -5.4302   -8.4032 S.3       1 <0>        -0.0266
     24 C19       -10.8318   -6.4732   -8.1876 C.2       1 <0>         0.5412
     25 O1        -11.6015   -6.8945   -9.0312 O.2       1 <0>        -0.4334
     26 N3        -10.8467   -6.6762   -6.8558 N.am      1 <0>        -0.6549
     27 H2        -11.5427   -7.2250   -6.4619 H         1 <0>         0.4167
     28 N4         -2.0599    0.2523   -2.0756 N.4       1 <0>        -0.6402
     29 C20         3.6720    2.1819   -0.0222 C.3       1 <0>         0.5036
     30 F1          4.0857    2.4144    1.2938 F         1 <0>        -0.1689
     31 F2          4.6506    1.4423   -0.6949 F         1 <0>        -0.1714
     32 F3          3.4816    3.4050   -0.6742 F         1 <0>        -0.1728
     33 H3         -0.9591    1.9053    0.0259 H         1 <0>         0.1371
     34 H4          1.1563    3.1654    0.0076 H         1 <0>         0.1471
     35 H5          3.3385   -0.4987   -0.0326 H         1 <0>         0.1478
     36 H6          1.2231   -1.7588   -0.0179 H         1 <0>         0.1451
     37 H7         -1.1443   -1.7285    0.5180 H         1 <0>         0.1326
     38 H8         -2.0551   -0.1993    0.5352 H         1 <0>         0.1103
     39 H9         -2.7351   -2.8985   -1.0242 H         1 <0>         0.1170
     40 H10        -3.7596   -1.4603   -0.7997 H         1 <0>         0.0999
     41 H11        -3.0366   -1.6214   -3.5252 H         1 <0>         0.4105
     42 H12        -7.0339   -4.7163   -1.8610 H         1 <0>         0.1816
     43 H13        -8.6708   -5.7114   -2.8973 H         1 <0>         0.1423
     44 H14       -10.4778   -6.8136   -4.0979 H         1 <0>         0.1422
     45 H15        -7.1706   -4.1080   -6.5772 H         1 <0>         0.1379
     46 H16        -2.7994    0.7132   -1.5668 H         1 <0>         0.4377
     47 H17        -1.2384    0.8381   -2.0794 H         1 <0>         0.4380
     48 H18        -2.3583    0.0853   -3.0249 H         1 <0>         0.4323
@<TRIPOS>BOND
     1    1    6 ar
     2    1    2 ar
     3    1   33 1
     4    2    3 ar
     5    2   34 1
     6    3    4 ar
     7    3   29 1
     8    4    5 ar
     9    4   35 1
    10    5    6 ar
    11    5   36 1
    12    6    7 1
    13    7    8 1
    14    7   37 1
    15    7   38 1
    16    8    9 1
    17    8   10 1
    18    8   28 1
    19   10   11 1
    20   10   39 1
    21   10   40 1
    22   11   12 1
    23   11   41 1
    24   12   16 1
    25   12   13 2
    26   13   14 1
    27   14   15 2
    28   14   42 1
    29   15   16 1
    30   15   17 1
    31   17   22 ar
    32   17   18 ar
    33   18   19 ar
    34   18   43 1
    35   19   20 ar
    36   19   44 1
    37   20   26 1
    38   20   21 ar
    39   21   22 ar
    40   21   23 1
    41   22   45 1
    42   23   24 1
    43   24   25 2
    44   24   26 am
    45   26   27 1
    46   28   46 1
    47   28   47 1
    48   28   48 1
    49   29   30 1
    50   29   31 1
    51   29   32 1
@<TRIPOS>MOLECULE
CHEMBL205410
   48    50     0     0     0
SMALL
USER_CHARGES

@<TRIPOS>ATOM
      1 C1         -0.0166    1.3750    0.0096 C.ar      1 <0>        -0.1031
      2 C2          1.1704    2.0863    0.0021 C.ar      1 <0>        -0.1135
      3 C3          2.3830    1.4207   -0.0135 C.ar      1 <0>        -0.1289
      4 C4          2.4164    0.0414   -0.0213 C.ar      1 <0>        -0.0584
      5 C5          1.2226   -0.6825   -0.0133 C.ar      1 <0>        -0.0003
      6 C6          0.0021   -0.0041    0.0020 C.ar      1 <0>        -0.0557
      7 C7          1.2496   -2.1142   -0.0218 C.1       1 <0>         0.2278
      8 N1          1.2711   -3.2500   -0.0285 N.1       1 <0>        -0.3776
      9 C8          3.6705    2.2039   -0.0226 C.3       1 <0>        -0.0980
     10 C9          4.1208    2.4616    1.4167 C.3       1 <0>         0.0419
     11 H1          4.1924    1.5139    1.9503 H         1 <0>         0.1572
     12 C10         5.4888    3.1467    1.4081 C.3       1 <0>         0.0264
     13 O1          5.9620    3.2824    2.7497 O.3       1 <0>        -0.3224
     14 C11         7.1731    3.8754    2.9198 C.ar      1 <0>         0.0664
     15 C12         7.7029    4.0382    4.1927 C.ar      1 <0>        -0.0901
     16 C13         8.9540    4.6552    4.3156 C.ar      1 <0>        -0.0562
     17 C14         9.6145    5.0794    3.1592 C.ar      1 <0>         0.0864
     18 N2          9.0713    4.9035    1.9731 N.ar      1 <0>        -0.4397
     19 C15         7.8976    4.3206    1.8223 C.ar      1 <0>         0.0227
     20 C16         9.5641    4.8543    5.6425 C.2       1 <0>        -0.1128
     21 C17        10.7642    5.4471    5.7475 C.2       1 <0>        -0.0777
     22 C18        11.3740    5.6462    7.0741 C.ar      1 <0>        -0.0260
     23 C19        10.7214    5.2192    8.2388 C.ar      1 <0>        -0.1654
     24 C20        11.3292    5.4260    9.4589 C.ar      1 <0>         0.1036
     25 N3         12.5067    6.0165    9.5385 N.ar      1 <0>        -0.4806
     26 C21        13.1558    6.4339    8.4679 C.ar      1 <0>         0.1045
     27 C22        12.6259    6.2628    7.2067 C.ar      1 <0>        -0.1563
     28 N4          3.1432    3.3287    2.0878 N.4       1 <0>        -0.6371
     29 H2         -0.9598    1.9010    0.0260 H         1 <0>         0.1455
     30 H3          1.1500    3.1661    0.0081 H         1 <0>         0.1325
     31 H4          3.3637   -0.4770   -0.0339 H         1 <0>         0.1419
     32 H5         -0.9250   -0.5580    0.0083 H         1 <0>         0.1442
     33 H6          4.4382    1.6350   -0.5471 H         1 <0>         0.1295
     34 H7          3.5132    3.1556   -0.5301 H         1 <0>         0.1094
     35 H8          6.1930    2.5448    0.8336 H         1 <0>         0.1151
     36 H9          5.3984    4.1331    0.9532 H         1 <0>         0.0938
     37 H10         7.1643    3.6983    5.0650 H         1 <0>         0.1489
     38 H11        10.5800    5.5567    3.2396 H         1 <0>         0.1673
     39 H12         7.4918    4.1918    0.8298 H         1 <0>         0.1579
     40 H13         9.0457    4.5233    6.5303 H         1 <0>         0.1331
     41 H14        11.2825    5.7781    4.8597 H         1 <0>         0.1325
     42 H15         9.7573    4.7359    8.1814 H         1 <0>         0.1365
     43 H16        10.8345    5.1007   10.3621 H         1 <0>         0.1595
     44 H17        14.1173    6.9125    8.5811 H         1 <0>         0.1615
     45 H18        13.1650    6.6025    6.3346 H         1 <0>         0.1408
     46 H19         3.0769    4.2061    1.5939 H         1 <0>         0.4332
     47 H20         2.2410    2.8770    2.0934 H         1 <0>         0.4362
     48 H21         3.4401    3.4987    3.0370 H         1 <0>         0.4435
@<TRIPOS>BOND
     1    1    6 ar
     2    1    2 ar
     3    1   29 1
     4    2    3 ar
     5    2   30 1
     6    3    4 ar
     7    3    9 1
     8    4    5 ar
     9    4   31 1
    10    5    6 ar
    11    5    7 1
    12    6   32 1
    13    7    8 3
    14    9   10 1
    15    9   33 1
    16    9   34 1
    17   10   11 1
    18   10   12 1
    19   10   28 1
    20   12   13 1
    21   12   35 1
    22   12   36 1
    23   13   14 1
    24   14   19 ar
    25   14   15 ar
    26   15   16 ar
    27   15   37 1
    28   16   17 ar
    29   16   20 1
    30   17   18 ar
    31   17   38 1
    32   18   19 ar
    33   19   39 1
    34   20   21 2
    35   20   40 1
    36   21   22 1
    37   21   41 1
    38   22   27 ar
    39   22   23 ar
    40   23   24 ar
    41   23   42 1
    42   24   25 ar
    43   24   43 1
    44   25   26 ar
    45   26   27 ar
    46   26   44 1
    47   27   45 1
    48   28   46 1
    49   28   47 1
    50   28   48 1
@<TRIPOS>MOLECULE
CHEMBL210209
   73    78     0     0     0
SMALL
USER_CHARGES

@<TRIPOS>ATOM
      1 C1         -0.0187    1.5258    0.0104 C.3       1 <0>        -0.1627
      2 C2          0.0021   -0.0041    0.0020 C.3       1 <0>        -0.0363
      3 C3          0.7421   -0.5109    1.2415 C.3       1 <0>        -0.1679
      4 C4         -1.4333   -0.5336    0.0129 C.3       1 <0>        -0.0840
      5 C5         -2.1387   -0.0476    1.2528 C.cat     1 <0>         0.3278
      6 N1         -2.1666   -0.6738    2.4182 N.pl3     1 <0>        -0.4866
      7 H1         -1.7386   -1.5208    2.6190 H         1 <0>         0.4645
      8 C6         -2.8931    0.0688    3.2793 C.2       1 <0>         0.0180
      9 C7         -3.3091    1.1643    2.6133 C.2       1 <0>         0.0175
     10 N2         -2.8268    1.0780    1.3560 N.pl3     1 <0>        -0.4866
     11 C8          0.7182   -0.4975   -1.2568 C.3       1 <0>        -0.0717
     12 C9          2.1085    0.0900   -1.3399 C.ar      1 <0>        -0.1351
     13 C10         3.2103   -0.0015   -0.5234 C.ar      1 <0>        -0.0492
     14 C11         4.3853    0.6677   -0.8662 C.ar      1 <0>        -0.0704
     15 C12         4.4299    1.4243   -2.0363 C.ar      1 <0>        -0.0599
     16 C13         3.3219    1.5109   -2.8489 C.ar      1 <0>        -0.1285
     17 C14         2.1456    0.8426   -2.5084 C.ar      1 <0>         0.1605
     18 N3          0.9141    0.7806   -3.1603 N.am      1 <0>        -0.6547
     19 C15         0.0252    0.0207   -2.4989 C.2       1 <0>         0.5319
     20 O1         -1.1179   -0.2073   -2.8341 O.2       1 <0>        -0.4888
     21 C16         5.5796    0.5754    0.0091 C.ar      1 <0>        -0.0443
     22 C17         6.7577    1.2477   -0.3253 C.ar      1 <0>        -0.0957
     23 C18         7.8474    1.1289    0.5274 C.ar      1 <0>         0.0751
     24 C19         7.7292    0.3529    1.6726 C.ar      1 <0>         0.0254
     25 N4          6.6018   -0.2686    1.9572 N.ar      1 <0>        -0.4370
     26 C20         5.5417   -0.1787    1.1803 C.ar      1 <0>         0.0833
     27 O2          9.0152    1.7640    0.2442 O.3       1 <0>        -0.3214
     28 C21        10.0889    1.5916    1.1712 C.3       1 <0>         0.0260
     29 C22        11.3108    2.3753    0.6879 C.3       1 <0>         0.0433
     30 H2         11.5603    2.0690   -0.3280 H         1 <0>         0.1536
     31 C23        12.4968    2.0917    1.6119 C.3       1 <0>        -0.0547
     32 C24        13.7302    2.7648    1.0672 C.2       1 <0>        -0.2409
     33 C25        14.6620    2.2067    0.2783 C.2       1 <0>         0.1057
     34 N5         15.6349    3.1231   -0.0149 N.pl3     1 <0>        -0.5836
     35 H3         16.4125    2.9523   -0.5689 H         1 <0>         0.4273
     36 C26        15.3455    4.3239    0.5936 C.ar      1 <0>         0.0988
     37 C27        14.1364    4.1540    1.2929 C.ar      1 <0>        -0.1173
     38 C28        13.5898    5.2207    2.0085 C.ar      1 <0>        -0.1159
     39 C29        14.2311    6.4274    2.0230 C.ar      1 <0>        -0.1179
     40 C30        15.4218    6.6013    1.3314 C.ar      1 <0>        -0.0928
     41 C31        15.9837    5.5593    0.6263 C.ar      1 <0>        -0.1095
     42 N6         11.0090    3.8129    0.7057 N.4       1 <0>        -0.6363
     43 H4          1.0039    1.9031    0.0027 H         1 <0>         0.0828
     44 H5         -0.5459    1.8868   -0.8726 H         1 <0>         0.0651
     45 H6         -0.5289    1.8773    0.9072 H         1 <0>         0.0567
     46 H7          0.2319   -0.1594    2.1383 H         1 <0>         0.0570
     47 H8          0.7568   -1.6008    1.2356 H         1 <0>         0.0764
     48 H9          1.7647   -0.1336    1.2338 H         1 <0>         0.0858
     49 H10        -1.9605   -0.1726   -0.8702 H         1 <0>         0.1393
     50 H11        -1.4185   -1.6235    0.0069 H         1 <0>         0.1299
     51 H12        -3.1028   -0.1705    4.3114 H         1 <0>         0.2284
     52 H13        -3.9137    1.9650    3.0130 H         1 <0>         0.2280
     53 H14         0.7602   -1.5866   -1.2691 H         1 <0>         0.1385
     54 H15         3.1664   -0.5896    0.3814 H         1 <0>         0.1392
     55 H16         5.3370    1.9447   -2.3062 H         1 <0>         0.1378
     56 H17         3.3634    2.0990   -3.7537 H         1 <0>         0.1384
     57 H18         0.7213    1.2346   -3.9955 H         1 <0>         0.4226
     58 H19         6.8195    1.8439   -1.2236 H         1 <0>         0.1493
     59 H20         8.5731    0.2566    2.3396 H         1 <0>         0.1608
     60 H21         4.6351   -0.6992    1.4514 H         1 <0>         0.1625
     61 H22         9.7854    1.9599    2.1512 H         1 <0>         0.0930
     62 H23        10.3408    0.5335    1.2427 H         1 <0>         0.1152
     63 H24        12.2819    2.4783    2.6081 H         1 <0>         0.0998
     64 H25        12.6646    1.0161    1.6680 H         1 <0>         0.1218
     65 H26        14.6463    1.1854   -0.0726 H         1 <0>         0.1790
     66 H27        12.6632    5.0929    2.5484 H         1 <0>         0.1139
     67 H28        13.8078    7.2524    2.5767 H         1 <0>         0.1313
     68 H29        15.9165    7.5611    1.3518 H         1 <0>         0.1361
     69 H30        16.9100    5.7049    0.0904 H         1 <0>         0.1304
     70 H31        10.2269    3.9999    0.0964 H         1 <0>         0.4379
     71 H32        10.7780    4.0964    1.6461 H         1 <0>         0.4299
     72 H33        11.8148    4.3297    0.3870 H         1 <0>         0.4398
     73 H34        -2.9629    1.7280    0.6490 H         1 <0>         0.4644
@<TRIPOS>BOND
     1    1    2 1
     2    1   43 1
     3    1   44 1
     4    1   45 1
     5    2    3 1
     6    2    4 1
     7    2   11 1
     8    3   46 1
     9    3   47 1
    10    3   48 1
    11    4    5 1
    12    4   49 1
    13    4   50 1
    14    5   10 2
    15    5    6 1
    16    6    7 1
    17    6    8 1
    18    8    9 2
    19    8   51 1
    20    9   10 1
    21    9   52 1
    22   10   73 1
    23   11   19 1
    24   11   12 1
    25   11   53 1
    26   12   17 ar
    27   12   13 ar
    28   13   14 ar
    29   13   54 1
    30   14   15 ar
    31   14   21 1
    32   15   16 ar
    33   15   55 1
    34   16   17 ar
    35   16   56 1
    36   17   18 1
    37   18   19 am
    38   18   57 1
    39   19   20 2
    40   21   26 ar
    41   21   22 ar
    42   22   23 ar
    43   22   58 1
    44   23   24 ar
    45   23   27 1
    46   24   25 ar
    47   24   59 1
    48   25   26 ar
    49   26   60 1
    50   27   28 1
    51   28   29 1
    52   28   61 1
    53   28   62 1
    54   29   30 1
    55   29   31 1
    56   29   42 1
    57   31   32 1
    58   31   63 1
    59   31   64 1
    60   32   37 1
    61   32   33 2
    62   33   34 1
    63   33   65 1
    64   34   35 1
    65   34   36 1
    66   36   41 ar
    67   36   37 ar
    68   37   38 ar
    69   38   39 ar
    70   38   66 1
    71   39   40 ar
    72   39   67 1
    73   40   41 ar
    74   40   68 1
    75   41   69 1
    76   42   70 1
    77   42   71 1
    78   42   72 1
@<TRIPOS>MOLECULE
CHEMBL210209
   72    77     0     0     0
SMALL
USER_CHARGES

@<TRIPOS>ATOM
      1 C1         -0.0187    1.5258    0.0104 C.3       1 <0>        -0.1433
      2 C2          0.0021   -0.0041    0.0020 C.3       1 <0>        -0.0242
      3 C3          0.7421   -0.5109    1.2415 C.3       1 <0>        -0.1607
      4 C4         -1.4333   -0.5336    0.0129 C.3       1 <0>        -0.0383
      5 C5         -2.1387   -0.0476    1.2528 C.2       1 <0>         0.2153
      6 N1         -3.3056    0.6314    1.2793 N.pl3     1 <0>        -0.5662
      7 H1         -3.8374    0.8924    0.5111 H         1 <0>         0.4193
      8 C6         -3.5983    0.8824    2.5927 C.2       1 <0>        -0.0558
      9 C7         -2.6008    0.3484    3.3231 C.2       1 <0>        -0.0295
     10 N2         -1.7258   -0.2182    2.4789 N.2       1 <0>        -0.4818
     11 C8          0.7182   -0.4975   -1.2568 C.3       1 <0>        -0.0769
     12 C9          2.1085    0.0900   -1.3399 C.ar      1 <0>        -0.1216
     13 C10         3.2103   -0.0015   -0.5234 C.ar      1 <0>        -0.0434
     14 C11         4.3853    0.6677   -0.8662 C.ar      1 <0>        -0.0827
     15 C12         4.4299    1.4243   -2.0363 C.ar      1 <0>        -0.0646
     16 C13         3.3219    1.5109   -2.8489 C.ar      1 <0>        -0.1373
     17 C14         2.1456    0.8426   -2.5084 C.ar      1 <0>         0.1637
     18 N3          0.9141    0.7806   -3.1603 N.am      1 <0>        -0.6599
     19 C15         0.0252    0.0207   -2.4989 C.2       1 <0>         0.5341
     20 O1         -1.1179   -0.2073   -2.8341 O.2       1 <0>        -0.4874
     21 C16         5.5796    0.5754    0.0091 C.ar      1 <0>        -0.0340
     22 C17         6.7577    1.2477   -0.3253 C.ar      1 <0>        -0.0987
     23 C18         7.8474    1.1289    0.5274 C.ar      1 <0>         0.0693
     24 C19         7.7292    0.3529    1.6726 C.ar      1 <0>         0.0197
     25 N4          6.6018   -0.2686    1.9572 N.ar      1 <0>        -0.4367
     26 C20         5.5417   -0.1787    1.1803 C.ar      1 <0>         0.0855
     27 O2          9.0152    1.7640    0.2442 O.3       1 <0>        -0.3230
     28 C21        10.0889    1.5916    1.1712 C.3       1 <0>         0.0264
     29 C22        11.3108    2.3753    0.6879 C.3       1 <0>         0.0434
     30 H2         11.5603    2.0690   -0.3280 H         1 <0>         0.1528
     31 C23        12.4968    2.0917    1.6119 C.3       1 <0>        -0.0556
     32 C24        13.7302    2.7648    1.0672 C.2       1 <0>        -0.2375
     33 C25        14.6620    2.2067    0.2783 C.2       1 <0>         0.1039
     34 N5         15.6349    3.1231   -0.0149 N.pl3     1 <0>        -0.5846
     35 H3         16.4125    2.9523   -0.5689 H         1 <0>         0.4265
     36 C26        15.3455    4.3239    0.5936 C.ar      1 <0>         0.0987
     37 C27        14.1364    4.1540    1.2929 C.ar      1 <0>        -0.1171
     38 C28        13.5898    5.2207    2.0085 C.ar      1 <0>        -0.1140
     39 C29        14.2311    6.4274    2.0230 C.ar      1 <0>        -0.1191
     40 C30        15.4218    6.6013    1.3314 C.ar      1 <0>        -0.0932
     41 C31        15.9837    5.5593    0.6263 C.ar      1 <0>        -0.1110
     42 N6         11.0090    3.8129    0.7057 N.4       1 <0>        -0.6363
     43 H4          1.0039    1.9031    0.0027 H         1 <0>         0.0609
     44 H5         -0.5459    1.8868   -0.8726 H         1 <0>         0.0471
     45 H6         -0.5289    1.8773    0.9072 H         1 <0>         0.0640
     46 H7          0.2319   -0.1594    2.1383 H         1 <0>         0.1046
     47 H8          0.7568   -1.6008    1.2356 H         1 <0>         0.0582
     48 H9          1.7647   -0.1336    1.2338 H         1 <0>         0.0531
     49 H10        -1.9605   -0.1726   -0.8702 H         1 <0>         0.0940
     50 H11        -1.4185   -1.6235    0.0069 H         1 <0>         0.0943
     51 H12        -4.4628    1.4079    2.9707 H         1 <0>         0.1764
     52 H13        -2.5212    0.3693    4.3999 H         1 <0>         0.1701
     53 H14         0.7602   -1.5866   -1.2691 H         1 <0>         0.1317
     54 H15         3.1664   -0.5896    0.3814 H         1 <0>         0.1419
     55 H16         5.3370    1.9447   -2.3062 H         1 <0>         0.1327
     56 H17         3.3634    2.0990   -3.7537 H         1 <0>         0.1333
     57 H18         0.7213    1.2346   -3.9955 H         1 <0>         0.4164
     58 H19         6.8195    1.8439   -1.2236 H         1 <0>         0.1476
     59 H20         8.5731    0.2566    2.3396 H         1 <0>         0.1574
     60 H21         4.6351   -0.6992    1.4514 H         1 <0>         0.1671
     61 H22         9.7854    1.9599    2.1512 H         1 <0>         0.0920
     62 H23        10.3408    0.5335    1.2427 H         1 <0>         0.1140
     63 H24        12.2819    2.4783    2.6081 H         1 <0>         0.0999
     64 H25        12.6646    1.0161    1.6680 H         1 <0>         0.1219
     65 H26        14.6463    1.1854   -0.0726 H         1 <0>         0.1792
     66 H27        12.6632    5.0929    2.5484 H         1 <0>         0.1150
     67 H28        13.8078    7.2524    2.5767 H         1 <0>         0.1312
     68 H29        15.9165    7.5611    1.3518 H         1 <0>         0.1352
     69 H30        16.9100    5.7049    0.0904 H         1 <0>         0.1293
     70 H31        10.7780    4.0964    1.6461 H         1 <0>         0.4300
     71 H32        11.8148    4.3297    0.3870 H         1 <0>         0.4380
     72 H33        10.2269    3.9999    0.0964 H         1 <0>         0.4391
@<TRIPOS>BOND
     1    1    2 1
     2    1   43 1
     3    1   44 1
     4    1   45 1
     5    2    3 1
     6    2    4 1
     7    2   11 1
     8    3   46 1
     9    3   47 1
    10    3   48 1
    11    4    5 1
    12    4   49 1
    13    4   50 1
    14    5   10 2
    15    5    6 1
    16    6    7 1
    17    6    8 1
    18    8    9 2
    19    8   51 1
    20    9   10 1
    21    9   52 1
    22   11   19 1
    23   11   12 1
    24   11   53 1
    25   12   17 ar
    26   12   13 ar
    27   13   14 ar
    28   13   54 1
    29   14   15 ar
    30   14   21 1
    31   15   16 ar
    32   15   55 1
    33   16   17 ar
    34   16   56 1
    35   17   18 1
    36   18   19 am
    37   18   57 1
    38   19   20 2
    39   21   26 ar
    40   21   22 ar
    41   22   23 ar
    42   22   58 1
    43   23   24 ar
    44   23   27 1
    45   24   25 ar
    46   24   59 1
    47   25   26 ar
    48   26   60 1
    49   27   28 1
    50   28   29 1
    51   28   61 1
    52   28   62 1
    53   29   30 1
    54   29   31 1
    55   29   42 1
    56   31   32 1
    57   31   63 1
    58   31   64 1
    59   32   37 1
    60   32   33 2
    61   33   34 1
    62   33   65 1
    63   34   35 1
    64   34   36 1
    65   36   41 ar
    66   36   37 ar
    67   37   38 ar
    68   38   39 ar
    69   38   66 1
    70   39   40 ar
    71   39   67 1
    72   40   41 ar
    73   40   68 1
    74   41   69 1
    75   42   70 1
    76   42   71 1
    77   42   72 1
@<TRIPOS>MOLECULE
CHEMBL210209
   73    78     0     0     0
SMALL
USER_CHARGES

@<TRIPOS>ATOM
      1 C1         -0.0187    1.5258    0.0104 C.3       1 <0>        -0.1678
      2 C2          0.0021   -0.0041    0.0020 C.3       1 <0>        -0.0364
      3 C3          0.7421   -0.5109    1.2415 C.3       1 <0>        -0.1631
      4 C4         -1.4333   -0.5336    0.0129 C.3       1 <0>        -0.0838
      5 C5         -2.1387   -0.0476    1.2528 C.cat     1 <0>         0.3275
      6 N1         -2.1666   -0.6738    2.4182 N.pl3     1 <0>        -0.4865
      7 H1         -1.7386   -1.5208    2.6190 H         1 <0>         0.4644
      8 C6         -2.8931    0.0688    3.2793 C.2       1 <0>         0.0176
      9 C7         -3.3091    1.1643    2.6133 C.2       1 <0>         0.0181
     10 N2         -2.8268    1.0780    1.3560 N.pl3     1 <0>        -0.4866
     11 C8          0.7182   -0.4975   -1.2568 C.3       1 <0>        -0.0715
     12 C9          2.1673   -0.0674   -1.2448 C.ar      1 <0>        -0.1351
     13 C10         2.7744    1.1656   -1.2297 C.ar      1 <0>        -0.0492
     14 C11         4.1666    1.2533   -1.2218 C.ar      1 <0>        -0.0704
     15 C12         4.9296    0.0866   -1.2293 C.ar      1 <0>        -0.0599
     16 C13         4.3138   -1.1447   -1.2445 C.ar      1 <0>        -0.1285
     17 C14         2.9217   -1.2352   -1.2524 C.ar      1 <0>         0.1605
     18 N3          2.0834   -2.3499   -1.2680 N.am      1 <0>        -0.6547
     19 C15         0.7837   -2.0098   -1.2715 C.2       1 <0>         0.5318
     20 O1         -0.1601   -2.7716   -1.2841 O.2       1 <0>        -0.4889
     21 C16         4.8310    2.5797   -1.2059 C.ar      1 <0>        -0.0443
     22 C17         6.2247    2.6749   -1.2038 C.ar      1 <0>        -0.0957
     23 C18         6.7976    3.9399   -1.1887 C.ar      1 <0>         0.0751
     24 C19         5.9724    5.0564   -1.1763 C.ar      1 <0>         0.0255
     25 N4          4.6601    4.9297   -1.1784 N.ar      1 <0>        -0.4370
     26 C20         4.0744    3.7499   -1.1988 C.ar      1 <0>         0.0834
     27 O2          8.1492    4.0832   -1.1855 O.3       1 <0>        -0.3214
     28 C21         8.6600    5.4177   -1.1697 C.3       1 <0>         0.0259
     29 C22        10.1895    5.3783   -1.1684 C.3       1 <0>         0.0435
     30 H2         10.5366    4.7701   -0.3331 H         1 <0>         0.1532
     31 C23        10.7362    6.8001   -1.0258 C.3       1 <0>        -0.0548
     32 C24        12.2373    6.7510   -0.9012 C.2       1 <0>        -0.2404
     33 C25        12.9438    6.7408    0.2401 C.2       1 <0>         0.1049
     34 N5         14.2823    6.6924   -0.0401 N.pl3     1 <0>        -0.5838
     35 H3         14.9902    6.6764    0.6229 H         1 <0>         0.4272
     36 C26        14.4746    6.6697   -1.4033 C.ar      1 <0>         0.0988
     37 C27        13.2018    6.6990   -2.0025 C.ar      1 <0>        -0.1175
     38 C28        13.0862    6.6792   -3.3935 C.ar      1 <0>        -0.1157
     39 C29        14.2115    6.6278   -4.1671 C.ar      1 <0>        -0.1176
     40 C30        15.4691    6.5945   -3.5809 C.ar      1 <0>        -0.0924
     41 C31        15.6065    6.6226   -2.2101 C.ar      1 <0>        -0.1099
     42 N6         10.6653    4.7949   -2.4299 N.4       1 <0>        -0.6366
     43 H4          1.0039    1.9031    0.0027 H         1 <0>         0.0858
     44 H5         -0.5459    1.8868   -0.8726 H         1 <0>         0.0762
     45 H6         -0.5289    1.8773    0.9072 H         1 <0>         0.0572
     46 H7          0.2319   -0.1594    2.1383 H         1 <0>         0.0568
     47 H8          0.7568   -1.6008    1.2356 H         1 <0>         0.0651
     48 H9          1.7647   -0.1336    1.2338 H         1 <0>         0.0830
     49 H10        -1.9605   -0.1726   -0.8702 H         1 <0>         0.1297
     50 H11        -1.4185   -1.6235    0.0069 H         1 <0>         0.1393
     51 H12        -3.1028   -0.1705    4.3114 H         1 <0>         0.2280
     52 H13        -3.9137    1.9650    3.0130 H         1 <0>         0.2285
     53 H14         0.2154   -0.1282   -2.1506 H         1 <0>         0.1384
     54 H15         2.1752    2.0642   -1.2242 H         1 <0>         0.1392
     55 H16         6.0078    0.1488   -1.2236 H         1 <0>         0.1377
     56 H17         4.9111   -2.0445   -1.2506 H         1 <0>         0.1384
     57 H18         2.4024   -3.2659   -1.2757 H         1 <0>         0.4226
     58 H19         6.8407    1.7878   -1.2132 H         1 <0>         0.1493
     59 H20         6.4119    6.0429   -1.1646 H         1 <0>         0.1608
     60 H21         2.9961    3.6888   -1.2048 H         1 <0>         0.1625
     61 H22         8.3110    5.9509   -2.0540 H         1 <0>         0.0934
     62 H23         8.3091    5.9305   -0.2742 H         1 <0>         0.1148
     63 H24        10.4635    7.3841   -1.9049 H         1 <0>         0.1001
     64 H25        10.3127    7.2646   -0.1354 H         1 <0>         0.1215
     65 H26        12.5188    6.7672    1.2326 H         1 <0>         0.1786
     66 H27        12.1108    6.7042   -3.8566 H         1 <0>         0.1142
     67 H28        14.1216    6.6125   -5.2433 H         1 <0>         0.1317
     68 H29        16.3491    6.5532   -4.2056 H         1 <0>         0.1363
     69 H30        16.5895    6.5951   -1.7635 H         1 <0>         0.1303
     70 H31        10.3048    3.8572   -2.5239 H         1 <0>         0.4382
     71 H32        10.3440    5.3579   -3.2031 H         1 <0>         0.4303
     72 H33        11.6740    4.7689   -2.4291 H         1 <0>         0.4398
     73 H34        -2.9629    1.7280    0.6490 H         1 <0>         0.4645
@<TRIPOS>BOND
     1    1    2 1
     2    1   43 1
     3    1   44 1
     4    1   45 1
     5    2    3 1
     6    2    4 1
     7    2   11 1
     8    3   46 1
     9    3   47 1
    10    3   48 1
    11    4    5 1
    12    4   49 1
    13    4   50 1
    14    5   10 2
    15    5    6 1
    16    6    7 1
    17    6    8 1
    18    8    9 2
    19    8   51 1
    20    9   10 1
    21    9   52 1
    22   10   73 1
    23   11   19 1
    24   11   12 1
    25   11   53 1
    26   12   17 ar
    27   12   13 ar
    28   13   14 ar
    29   13   54 1
    30   14   15 ar
    31   14   21 1
    32   15   16 ar
    33   15   55 1
    34   16   17 ar
    35   16   56 1
    36   17   18 1
    37   18   19 am
    38   18   57 1
    39   19   20 2
    40   21   26 ar
    41   21   22 ar
    42   22   23 ar
    43   22   58 1
    44   23   24 ar
    45   23   27 1
    46   24   25 ar
    47   24   59 1
    48   25   26 ar
    49   26   60 1
    50   27   28 1
    51   28   29 1
    52   28   61 1
    53   28   62 1
    54   29   30 1
    55   29   31 1
    56   29   42 1
    57   31   32 1
    58   31   63 1
    59   31   64 1
    60   32   37 1
    61   32   33 2
    62   33   34 1
    63   33   65 1
    64   34   35 1
    65   34   36 1
    66   36   41 ar
    67   36   37 ar
    68   37   38 ar
    69   38   39 ar
    70   38   66 1
    71   39   40 ar
    72   39   67 1
    73   40   41 ar
    74   40   68 1
    75   41   69 1
    76   42   70 1
    77   42   71 1
    78   42   72 1
@<TRIPOS>MOLECULE
CHEMBL210209
   72    77     0     0     0
SMALL
USER_CHARGES

@<TRIPOS>ATOM
      1 C1         -0.0187    1.5258    0.0104 C.3       1 <0>        -0.1482
      2 C2          0.0021   -0.0041    0.0020 C.3       1 <0>        -0.0253
      3 C3          0.7421   -0.5109    1.2415 C.3       1 <0>        -0.1560
      4 C4         -1.4333   -0.5336    0.0129 C.3       1 <0>        -0.0382
      5 C5         -2.1387   -0.0476    1.2528 C.2       1 <0>         0.2162
      6 N1         -3.3056    0.6314    1.2793 N.pl3     1 <0>        -0.5669
      7 H1         -3.8374    0.8924    0.5111 H         1 <0>         0.4187
      8 C6         -3.5983    0.8824    2.5927 C.2       1 <0>        -0.0556
      9 C7         -2.6008    0.3484    3.3231 C.2       1 <0>        -0.0291
     10 N2         -1.7258   -0.2182    2.4789 N.2       1 <0>        -0.4824
     11 C8          0.7182   -0.4975   -1.2568 C.3       1 <0>        -0.0764
     12 C9          2.1673   -0.0674   -1.2448 C.ar      1 <0>        -0.1225
     13 C10         2.7744    1.1656   -1.2297 C.ar      1 <0>        -0.0448
     14 C11         4.1666    1.2533   -1.2218 C.ar      1 <0>        -0.0843
     15 C12         4.9296    0.0866   -1.2293 C.ar      1 <0>        -0.0636
     16 C13         4.3138   -1.1447   -1.2445 C.ar      1 <0>        -0.1372
     17 C14         2.9217   -1.2352   -1.2524 C.ar      1 <0>         0.1681
     18 N3          2.0834   -2.3499   -1.2680 N.am      1 <0>        -0.6595
     19 C15         0.7837   -2.0098   -1.2715 C.2       1 <0>         0.5359
     20 O1         -0.1601   -2.7716   -1.2841 O.2       1 <0>        -0.4837
     21 C16         4.8310    2.5797   -1.2059 C.ar      1 <0>        -0.0323
     22 C17         6.2247    2.6749   -1.2038 C.ar      1 <0>        -0.0989
     23 C18         6.7976    3.9399   -1.1887 C.ar      1 <0>         0.0703
     24 C19         5.9724    5.0564   -1.1763 C.ar      1 <0>         0.0188
     25 N4          4.6601    4.9297   -1.1784 N.ar      1 <0>        -0.4373
     26 C20         4.0744    3.7499   -1.1988 C.ar      1 <0>         0.0837
     27 O2          8.1492    4.0832   -1.1855 O.3       1 <0>        -0.3227
     28 C21         8.6600    5.4177   -1.1697 C.3       1 <0>         0.0264
     29 C22        10.1895    5.3783   -1.1684 C.3       1 <0>         0.0434
     30 H2         10.5366    4.7701   -0.3331 H         1 <0>         0.1530
     31 C23        10.7362    6.8001   -1.0258 C.3       1 <0>        -0.0555
     32 C24        12.2373    6.7510   -0.9012 C.2       1 <0>        -0.2376
     33 C25        12.9438    6.7408    0.2401 C.2       1 <0>         0.1040
     34 N5         14.2823    6.6924   -0.0401 N.pl3     1 <0>        -0.5845
     35 H3         14.9902    6.6764    0.6229 H         1 <0>         0.4266
     36 C26        14.4746    6.6697   -1.4033 C.ar      1 <0>         0.0988
     37 C27        13.2018    6.6990   -2.0025 C.ar      1 <0>        -0.1171
     38 C28        13.0862    6.6792   -3.3935 C.ar      1 <0>        -0.1141
     39 C29        14.2115    6.6278   -4.1671 C.ar      1 <0>        -0.1191
     40 C30        15.4691    6.5945   -3.5809 C.ar      1 <0>        -0.0932
     41 C31        15.6065    6.6226   -2.2101 C.ar      1 <0>        -0.1110
     42 N6         10.6653    4.7949   -2.4299 N.4       1 <0>        -0.6363
     43 H4          1.0039    1.9031    0.0027 H         1 <0>         0.0648
     44 H5         -0.5459    1.8868   -0.8726 H         1 <0>         0.0576
     45 H6         -0.5289    1.8773    0.9072 H         1 <0>         0.0648
     46 H7          0.2319   -0.1594    2.1383 H         1 <0>         0.1044
     47 H8          0.7568   -1.6008    1.2356 H         1 <0>         0.0477
     48 H9          1.7647   -0.1336    1.2338 H         1 <0>         0.0492
     49 H10        -1.9605   -0.1726   -0.8702 H         1 <0>         0.0802
     50 H11        -1.4185   -1.6235    0.0069 H         1 <0>         0.1080
     51 H12        -4.4628    1.4079    2.9707 H         1 <0>         0.1767
     52 H13        -2.5212    0.3693    4.3999 H         1 <0>         0.1697
     53 H14         0.2154   -0.1282   -2.1506 H         1 <0>         0.1281
     54 H15         2.1752    2.0642   -1.2242 H         1 <0>         0.1388
     55 H16         6.0078    0.1488   -1.2236 H         1 <0>         0.1328
     56 H17         4.9111   -2.0445   -1.2506 H         1 <0>         0.1340
     57 H18         2.4024   -3.2659   -1.2757 H         1 <0>         0.4171
     58 H19         6.8407    1.7878   -1.2132 H         1 <0>         0.1481
     59 H20         6.4119    6.0429   -1.1646 H         1 <0>         0.1574
     60 H21         2.9961    3.6888   -1.2048 H         1 <0>         0.1654
     61 H22         8.3110    5.9509   -2.0540 H         1 <0>         0.0919
     62 H23         8.3091    5.9305   -0.2742 H         1 <0>         0.1139
     63 H24        10.4635    7.3841   -1.9049 H         1 <0>         0.0998
     64 H25        10.3127    7.2646   -0.1354 H         1 <0>         0.1218
     65 H26        12.5188    6.7672    1.2326 H         1 <0>         0.1791
     66 H27        12.1108    6.7042   -3.8566 H         1 <0>         0.1149
     67 H28        14.1216    6.6125   -5.2433 H         1 <0>         0.1311
     68 H29        16.3491    6.5532   -4.2056 H         1 <0>         0.1352
     69 H30        16.5895    6.5951   -1.7635 H         1 <0>         0.1294
     70 H31        10.3440    5.3579   -3.2031 H         1 <0>         0.4299
     71 H32        11.6740    4.7689   -2.4291 H         1 <0>         0.4381
     72 H33        10.3048    3.8572   -2.5239 H         1 <0>         0.4392
@<TRIPOS>BOND
     1    1    2 1
     2    1   43 1
     3    1   44 1
     4    1   45 1
     5    2    3 1
     6    2    4 1
     7    2   11 1
     8    3   46 1
     9    3   47 1
    10    3   48 1
    11    4    5 1
    12    4   49 1
    13    4   50 1
    14    5   10 2
    15    5    6 1
    16    6    7 1
    17    6    8 1
    18    8    9 2
    19    8   51 1
    20    9   10 1
    21    9   52 1
    22   11   19 1
    23   11   12 1
    24   11   53 1
    25   12   17 ar
    26   12   13 ar
    27   13   14 ar
    28   13   54 1
    29   14   15 ar
    30   14   21 1
    31   15   16 ar
    32   15   55 1
    33   16   17 ar
    34   16   56 1
    35   17   18 1
    36   18   19 am
    37   18   57 1
    38   19   20 2
    39   21   26 ar
    40   21   22 ar
    41   22   23 ar
    42   22   58 1
    43   23   24 ar
    44   23   27 1
    45   24   25 ar
    46   24   59 1
    47   25   26 ar
    48   26   60 1
    49   27   28 1
    50   28   29 1
    51   28   61 1
    52   28   62 1
    53   29   30 1
    54   29   31 1
    55   29   42 1
    56   31   32 1
    57   31   63 1
    58   31   64 1
    59   32   37 1
    60   32   33 2
    61   33   34 1
    62   33   65 1
    63   34   35 1
    64   34   36 1
    65   36   41 ar
    66   36   37 ar
    67   37   38 ar
    68   38   39 ar
    69   38   66 1
    70   39   40 ar
    71   39   67 1
    72   40   41 ar
    73   40   68 1
    74   41   69 1
    75   42   70 1
    76   42   71 1
    77   42   72 1
@<TRIPOS>MOLECULE
CHEMBL206183
   50    53     0     0     0
SMALL
USER_CHARGES

@<TRIPOS>ATOM
      1 C1         -0.0164    1.3552    0.0095 C.ar      1 <0>        -0.0980
      2 C2          1.1573    2.0973    0.0023 C.ar      1 <0>        -0.0874
      3 C3          2.3741    1.4452   -0.0128 C.ar      1 <0>        -0.0571
      4 C4          2.4061    0.0671   -0.0204 C.ar      1 <0>        -0.1159
      5 C5          1.2281   -0.7107   -0.0134 C.ar      1 <0>        -0.1069
      6 C6          0.0021   -0.0041    0.0020 C.ar      1 <0>        -0.1272
      7 C7          1.4506   -2.1491   -0.0232 C.2       1 <0>        -0.1657
      8 C8          2.7062   -2.6192   -0.0376 C.2       1 <0>        -0.1169
      9 S1          3.7042   -1.1421   -0.0393 S.3       1 <0>         0.0895
     10 C9          0.2817   -3.1002   -0.0167 C.3       1 <0>        -0.0814
     11 C10        -0.2074   -3.3170   -1.4501 C.3       1 <0>         0.0435
     12 H1          0.6233   -3.6535   -2.0704 H         1 <0>         0.1562
     13 C11        -1.3113   -4.3763   -1.4575 C.3       1 <0>         0.0273
     14 O1         -1.6870   -4.6633   -2.8061 O.3       1 <0>        -0.3220
     15 C12        -2.6635   -5.5906   -2.9906 C.ar      1 <0>         0.0668
     16 C13        -3.0791   -5.9275   -4.2717 C.ar      1 <0>        -0.0902
     17 C14        -4.0884   -6.8885   -4.4093 C.ar      1 <0>        -0.0565
     18 C15        -4.6330   -7.4658   -3.2588 C.ar      1 <0>         0.0859
     19 N1         -4.2061   -7.1133   -2.0644 N.ar      1 <0>        -0.4395
     20 C16        -3.2531   -6.2162   -1.9004 C.ar      1 <0>         0.0226
     21 C17        -4.5689   -7.2843   -5.7453 C.2       1 <0>        -0.1121
     22 C18        -5.5371   -8.2068   -5.8645 C.2       1 <0>        -0.0784
     23 C19        -6.0174   -8.6025   -7.2002 C.ar      1 <0>        -0.0257
     24 C20        -5.4735   -8.0328   -8.3597 C.ar      1 <0>        -0.1655
     25 C21        -5.9534   -8.4328   -9.5887 C.ar      1 <0>         0.1035
     26 N2         -6.9101   -9.3371   -9.6815 N.ar      1 <0>        -0.4807
     27 C22        -7.4500   -9.8987   -8.6163 C.ar      1 <0>         0.1045
     28 C23        -7.0272   -9.5635   -7.3475 C.ar      1 <0>        -0.1564
     29 N3         -0.7366   -2.0545   -1.9831 N.4       1 <0>        -0.6384
     30 H2         -0.9657    1.8698    0.0259 H         1 <0>         0.1372
     31 H3          1.1186    3.1766    0.0080 H         1 <0>         0.1454
     32 H4          3.2942    2.0107   -0.0189 H         1 <0>         0.1420
     33 H5         -0.9293   -0.5508    0.0079 H         1 <0>         0.1143
     34 H6          3.0347   -3.6480   -0.0458 H         1 <0>         0.1993
     35 H7          0.5920   -4.0542    0.4096 H         1 <0>         0.1279
     36 H8         -0.5255   -2.6797    0.5830 H         1 <0>         0.1033
     37 H9         -0.9454   -5.2858   -0.9809 H         1 <0>         0.1153
     38 H10        -2.1771   -4.0027   -0.9108 H         1 <0>         0.0926
     39 H11        -2.6361   -5.4607   -5.1390 H         1 <0>         0.1489
     40 H12        -5.4120   -8.2082   -3.3506 H         1 <0>         0.1673
     41 H13        -2.9297   -5.9609   -0.9021 H         1 <0>         0.1578
     42 H14        -4.1421   -6.8322   -6.6285 H         1 <0>         0.1331
     43 H15        -5.9639   -8.6589   -4.9814 H         1 <0>         0.1324
     44 H16        -4.6909   -7.2917   -8.2913 H         1 <0>         0.1364
     45 H17        -5.5409   -7.9999  -10.4880 H         1 <0>         0.1595
     46 H18        -8.2311  -10.6342   -8.7403 H         1 <0>         0.1615
     47 H19        -7.4702  -10.0308   -6.4805 H         1 <0>         0.1407
     48 H20        -1.5056   -1.7431   -1.4088 H         1 <0>         0.4293
     49 H21        -0.0086   -1.3559   -1.9781 H         1 <0>         0.4370
     50 H22        -1.0592   -2.1975   -2.9284 H         1 <0>         0.4407
@<TRIPOS>BOND
     1    1    6 ar
     2    1    2 ar
     3    1   30 1
     4    2    3 ar
     5    2   31 1
     6    3    4 ar
     7    3   32 1
     8    4    9 1
     9    4    5 ar
    10    5    6 ar
    11    5    7 1
    12    6   33 1
    13    7    8 2
    14    7   10 1
    15    8    9 1
    16    8   34 1
    17   10   11 1
    18   10   35 1
    19   10   36 1
    20   11   12 1
    21   11   13 1
    22   11   29 1
    23   13   14 1
    24   13   37 1
    25   13   38 1
    26   14   15 1
    27   15   20 ar
    28   15   16 ar
    29   16   17 ar
    30   16   39 1
    31   17   18 ar
    32   17   21 1
    33   18   19 ar
    34   18   40 1
    35   19   20 ar
    36   20   41 1
    37   21   22 2
    38   21   42 1
    39   22   23 1
    40   22   43 1
    41   23   28 ar
    42   23   24 ar
    43   24   25 ar
    44   24   44 1
    45   25   26 ar
    46   25   45 1
    47   26   27 ar
    48   27   28 ar
    49   27   46 1
    50   28   47 1
    51   29   48 1
    52   29   49 1
    53   29   50 1
@<TRIPOS>MOLECULE
CHEMBL210020
   49    52     0     0     0
SMALL
USER_CHARGES

@<TRIPOS>ATOM
      1 C1         -0.0167    1.3781    0.0096 C.ar      1 <0>        -0.1009
      2 C2          1.1709    2.0855    0.0021 C.ar      1 <0>        -0.1076
      3 C3          2.3773    1.4107   -0.0130 C.ar      1 <0>        -0.1400
      4 C4          2.3960    0.0285   -0.0201 C.ar      1 <0>        -0.1310
      5 C5          1.2084   -0.6789   -0.0117 C.ar      1 <0>        -0.1028
      6 C6          0.0021   -0.0041    0.0020 C.ar      1 <0>        -0.1052
      7 C7          3.7112   -0.7071   -0.0376 C.3       1 <0>        -0.0970
      8 C8          4.1714   -0.9633    1.3989 C.3       1 <0>         0.0439
      9 H1          3.3868   -1.4885    1.9436 H         1 <0>         0.1556
     10 C9          5.4407   -1.8174    1.3832 C.3       1 <0>         0.0268
     11 O1          5.8049   -2.1541    2.7233 O.3       1 <0>        -0.3222
     12 C10         6.9187   -2.9157    2.8873 C.ar      1 <0>         0.0675
     13 C11         7.3341   -3.2893    4.1592 C.ar      1 <0>        -0.0909
     14 C12         8.4846   -4.0726    4.2756 C.ar      1 <0>        -0.0477
     15 C13         9.1668   -4.4467    3.1191 C.ar      1 <0>         0.0905
     16 N1          8.7371   -4.0691    1.9327 N.ar      1 <0>        -0.4383
     17 C14         7.6518   -3.3345    1.7857 C.ar      1 <0>         0.0248
     18 C15         8.9733   -4.4996    5.6097 C.ar      1 <0>        -0.0370
     19 C16         8.2697   -4.1175    6.7634 C.ar      1 <0>        -0.1140
     20 C17         8.6942   -4.4942    7.9980 C.ar      1 <0>        -0.0740
     21 C18         9.8528   -5.2777    8.1299 C.ar      1 <0>        -0.1089
     22 C19        10.3292   -5.6911    9.3843 C.ar      1 <0>         0.1484
     23 N2         11.4159   -6.4231    9.4635 N.ar      1 <0>        -0.4812
     24 C20        12.1055   -6.8029    8.3964 C.ar      1 <0>         0.0854
     25 C21        11.7278   -6.4545    7.1355 C.ar      1 <0>        -0.1542
     26 C22        10.5709   -5.6695    6.9695 C.ar      1 <0>        -0.0226
     27 C23        10.1146   -5.2752    5.7056 C.ar      1 <0>        -0.0868
     28 N3          4.4519    0.3186    2.0592 N.4       1 <0>        -0.6366
     29 H2         -0.9591    1.9053    0.0259 H         1 <0>         0.1332
     30 H3          1.1563    3.1654    0.0076 H         1 <0>         0.1327
     31 H4          3.3051    1.9634   -0.0196 H         1 <0>         0.1228
     32 H5          1.2231   -1.7588   -0.0176 H         1 <0>         0.1308
     33 H6         -0.9258   -0.5567    0.0082 H         1 <0>         0.1336
     34 H7          3.5884   -1.6586   -0.5549 H         1 <0>         0.1255
     35 H8          4.4573   -0.1052   -0.5563 H         1 <0>         0.1039
     36 H9          5.2575   -2.7301    0.8162 H         1 <0>         0.1147
     37 H10         6.2504   -1.2562    0.9167 H         1 <0>         0.0931
     38 H11         6.7821   -2.9819    5.0350 H         1 <0>         0.1501
     39 H12        10.0577   -5.0523    3.1966 H         1 <0>         0.1680
     40 H13         7.3314   -3.0509    0.7941 H         1 <0>         0.1589
     41 H14         7.3784   -3.5152    6.6681 H         1 <0>         0.1287
     42 H15         8.1425   -4.1917    8.8758 H         1 <0>         0.1402
     43 H16         9.8023   -5.4068   10.2831 H         1 <0>         0.1674
     44 H17        12.9917   -7.4052    8.5313 H         1 <0>         0.1588
     45 H18        12.3042   -6.7738    6.2798 H         1 <0>         0.1430
     46 H19        10.6501   -5.5706    4.8154 H         1 <0>         0.1389
     47 H20         5.1782    0.8048    1.5550 H         1 <0>         0.4324
     48 H21         3.6148    0.8819    2.0696 H         1 <0>         0.4369
     49 H22         4.7554    0.1497    3.0065 H         1 <0>         0.4421
@<TRIPOS>BOND
     1    1    6 ar
     2    1    2 ar
     3    1   29 1
     4    2    3 ar
     5    2   30 1
     6    3    4 ar
     7    3   31 1
     8    4    5 ar
     9    4    7 1
    10    5    6 ar
    11    5   32 1
    12    6   33 1
    13    7    8 1
    14    7   34 1
    15    7   35 1
    16    8    9 1
    17    8   10 1
    18    8   28 1
    19   10   11 1
    20   10   36 1
    21   10   37 1
    22   11   12 1
    23   12   17 ar
    24   12   13 ar
    25   13   14 ar
    26   13   38 1
    27   14   15 ar
    28   14   18 1
    29   15   16 ar
    30   15   39 1
    31   16   17 ar
    32   17   40 1
    33   18   27 ar
    34   18   19 ar
    35   19   20 ar
    36   19   41 1
    37   20   21 ar
    38   20   42 1
    39   21   26 ar
    40   21   22 ar
    41   22   23 ar
    42   22   43 1
    43   23   24 ar
    44   24   25 ar
    45   24   44 1
    46   25   26 ar
    47   25   45 1
    48   26   27 ar
    49   27   46 1
    50   28   47 1
    51   28   48 1
    52   28   49 1
@<TRIPOS>MOLECULE
CHEMBL576135
   52    56     0     0     0
SMALL
USER_CHARGES

@<TRIPOS>ATOM
      1 C1         -0.0184    1.5028    0.0103 C.3       1 <0>        -0.0831
      2 C2          0.0021   -0.0041    0.0020 C.2       1 <0>         0.1049
      3 C3          0.0080   -0.8219   -1.1499 C.ar      1 <0>        -0.1397
      4 C4         -0.0022   -0.5793   -2.5294 C.ar      1 <0>        -0.0578
      5 C5          0.0088   -1.6623   -3.3937 C.ar      1 <0>         0.0925
      6 N1          0.0283   -2.9109   -2.9313 N.ar      1 <0>        -0.4343
      7 C6          0.0384   -3.1855   -1.6462 C.ar      1 <0>         0.1199
      8 C7          0.0290   -2.1610   -0.7043 C.ar      1 <0>         0.0814
      9 N2          0.0351   -2.1145    0.6648 N.pl3     1 <0>        -0.4843
     10 H1          0.0493   -2.8801    1.2603 H         1 <0>         0.4500
     11 N3          0.0229   -0.7695    1.0556 N.2       1 <0>        -0.2288
     12 C8         -0.0016   -1.4268   -4.8585 C.ar      1 <0>        -0.0324
     13 C9         -0.1016   -2.4990   -5.7484 C.ar      1 <0>        -0.0689
     14 C10        -0.1076   -2.2252   -7.1100 C.ar      1 <0>         0.0619
     15 C11        -0.0149   -0.9070   -7.5356 C.ar      1 <0>         0.0255
     16 N4          0.0787    0.0809   -6.6674 N.ar      1 <0>        -0.4393
     17 C12         0.0823   -0.1325   -5.3675 C.ar      1 <0>         0.0909
     18 O1         -0.2027   -3.2352   -8.0146 O.3       1 <0>        -0.3208
     19 C13        -0.2022   -2.8708   -9.3963 C.3       1 <0>         0.0279
     20 C14        -0.3155   -4.1312  -10.2562 C.3       1 <0>         0.0421
     21 H2          0.4811   -4.8258   -9.9896 H         1 <0>         0.1597
     22 C15        -0.1898   -3.7537  -11.7336 C.3       1 <0>        -0.0992
     23 C16        -0.1781   -5.0055  -12.5726 C.ar      1 <0>        -0.0820
     24 C17         1.0249   -5.5732  -12.9502 C.ar      1 <0>        -0.0857
     25 C18         1.0394   -6.7212  -13.7197 C.ar      1 <0>        -0.0775
     26 C19        -0.1490   -7.3073  -14.1149 C.ar      1 <0>        -0.0681
     27 C20        -1.3577   -6.7442  -13.7405 C.ar      1 <0>         0.0472
     28 C21        -1.3724   -5.5900  -12.9605 C.ar      1 <0>        -0.0084
     29 O2         -2.6703   -5.2407  -12.7227 O.3       1 <0>        -0.3142
     30 C22        -3.4471   -5.9605  -13.6984 C.3       1 <0>         0.5800
     31 O3         -2.6465   -7.1160  -13.9934 O.3       1 <0>        -0.2771
     32 F1         -4.6842   -6.3347  -13.1629 F         1 <0>        -0.1070
     33 F2         -3.6225   -5.1897  -14.8527 F         1 <0>        -0.1419
     34 N5         -1.6187   -4.7678  -10.0227 N.4       1 <0>        -0.6364
     35 H3          1.0042    1.8801    0.0026 H         1 <0>         0.0893
     36 H4         -0.5455    1.8639   -0.8728 H         1 <0>         0.0850
     37 H5         -0.5286    1.8543    0.9071 H         1 <0>         0.0860
     38 H6         -0.0186    0.4307   -2.9115 H         1 <0>         0.1474
     39 H7          0.0541   -4.2144   -1.3183 H         1 <0>         0.1693
     40 H8         -0.1721   -3.5143   -5.3871 H         1 <0>         0.1565
     41 H9         -0.0190   -0.6876   -8.5931 H         1 <0>         0.1583
     42 H10         0.1558    0.7045   -4.6890 H         1 <0>         0.1680
     43 H11        -1.0488   -2.2150   -9.5995 H         1 <0>         0.0936
     44 H12         0.7256   -2.3506   -9.6346 H         1 <0>         0.1167
     45 H13        -1.0360   -3.1304  -12.0226 H         1 <0>         0.1101
     46 H14         0.7376   -3.2027  -11.8901 H         1 <0>         0.1377
     47 H15         1.9552   -5.1184  -12.6434 H         1 <0>         0.1576
     48 H16         1.9810   -7.1613  -14.0132 H         1 <0>         0.1596
     49 H17        -0.1347   -8.2044  -14.7161 H         1 <0>         0.1563
     50 H18        -1.7016   -5.0167   -9.0484 H         1 <0>         0.4439
     51 H19        -2.3561   -4.1248  -10.2695 H         1 <0>         0.4349
     52 H20        -1.6934   -5.5990  -10.5897 H         1 <0>         0.4327
@<TRIPOS>BOND
     1    1    2 1
     2    1   35 1
     3    1   36 1
     4    1   37 1
     5    2   11 2
     6    2    3 1
     7    3    8 ar
     8    3    4 ar
     9    4    5 ar
    10    4   38 1
    11    5    6 ar
    12    5   12 1
    13    6    7 ar
    14    7    8 ar
    15    7   39 1
    16    8    9 1
    17    9   10 1
    18    9   11 1
    19   12   17 ar
    20   12   13 ar
    21   13   14 ar
    22   13   40 1
    23   14   15 ar
    24   14   18 1
    25   15   16 ar
    26   15   41 1
    27   16   17 ar
    28   17   42 1
    29   18   19 1
    30   19   20 1
    31   19   43 1
    32   19   44 1
    33   20   21 1
    34   20   22 1
    35   20   34 1
    36   22   23 1
    37   22   45 1
    38   22   46 1
    39   23   28 ar
    40   23   24 ar
    41   24   25 ar
    42   24   47 1
    43   25   26 ar
    44   25   48 1
    45   26   27 ar
    46   26   49 1
    47   27   31 1
    48   27   28 ar
    49   28   29 1
    50   29   30 1
    51   30   31 1
    52   30   32 1
    53   30   33 1
    54   34   50 1
    55   34   51 1
    56   34   52 1
@<TRIPOS>MOLECULE
CHEMBL575448
   59    64     0     0     0
SMALL
USER_CHARGES

@<TRIPOS>ATOM
      1 C1          1.7535   -2.6140    1.5911 C.3       1 <0>        -0.1576
      2 C2          1.9372   -1.1974    1.0429 C.3       1 <0>         0.1323
      3 C3          2.2996   -1.2576   -0.4560 C.3       1 <0>        -0.1134
      4 C4          1.5200   -0.0551   -1.0506 C.3       1 <0>        -0.1390
      5 C5          0.2292   -0.0672   -0.1942 C.3       1 <0>         0.1045
      6 N1          0.6767   -0.4495    1.1575 N.pl3     1 <0>        -0.5678
      7 C6          0.0168   -0.1528    2.3424 C.cat     1 <0>         0.7218
      8 N2         -1.1775    0.4452    2.2857 N.2       1 <0>        -0.5913
      9 C7         -1.8506    0.7504    3.3820 C.2       1 <0>         0.5986
     10 C8         -1.2954    0.4378    4.6446 C.2       1 <0>        -0.1075
     11 C9         -1.7243    0.6153    5.9471 C.2       1 <0>        -0.0396
     12 C10        -0.7288    0.0950    6.7743 C.2       1 <0>        -0.1604
     13 C11         0.2678   -0.3803    5.9800 C.2       1 <0>         0.0915
     14 N3         -0.0622   -0.1793    4.6913 N.pl3     1 <0>        -0.2309
     15 N4          0.5826   -0.4728    3.4813 N.pl3     1 <0>        -0.4793
     16 N5         -3.0823    1.3684    3.2951 N.pl3     1 <0>        -0.5428
     17 C12        -3.6742    1.5771    2.0432 C.2       1 <0>         0.2706
     18 C13        -3.0895    1.2980    0.7973 C.2       1 <0>        -0.2564
     19 C14        -3.9781    1.6382   -0.1637 C.2       1 <0>         0.1447
     20 N6         -5.0843    2.1149    0.4453 N.pl3     1 <0>        -0.4469
     21 H1         -5.8860    2.4338    0.0021 H         1 <0>         0.4486
     22 N7         -4.8747    2.0624    1.8293 N.2       1 <0>        -0.2849
     23 C15        -3.7699    1.5087   -1.6506 C.3       1 <0>        -0.1084
     24 C16        -4.4171    2.5645   -2.5491 C.3       1 <0>        -0.1663
     25 C17        -4.9858    1.1448   -2.5051 C.3       1 <0>        -0.1664
     26 C18         3.0250   -0.4890    1.8083 C.2       1 <0>         0.4854
     27 O1          3.8838   -1.1306    2.3757 O.2       1 <0>        -0.4818
     28 N8          3.0435    0.8576    1.8624 N.am      1 <0>        -0.6582
     29 C19         4.1149    1.5191    2.4758 C.ar      1 <0>         0.0600
     30 C20         5.4063    1.0037    2.3886 C.ar      1 <0>        -0.0399
     31 C21         6.4332    1.6923    3.0108 C.ar      1 <0>        -0.1677
     32 C22         6.1456    2.8626    3.6948 C.ar      1 <0>         0.3115
     33 N9          4.9102    3.3236    3.7580 N.ar      1 <0>        -0.4898
     34 C23         3.9057    2.6998    3.1737 C.ar      1 <0>         0.1268
     35 F1          7.1422    3.5404    4.3052 F         1 <0>        -0.1003
     36 H2          0.9186   -3.0952    1.0817 H         1 <0>         0.0948
     37 H3          2.6632   -3.1900    1.4216 H         1 <0>         0.1103
     38 H4          1.5478   -2.5659    2.6604 H         1 <0>         0.0538
     39 H5          3.3726   -1.1301   -0.5988 H         1 <0>         0.1067
     40 H6          1.9593   -2.1942   -0.8977 H         1 <0>         0.1138
     41 H7          2.0716    0.8748   -0.9127 H         1 <0>         0.0884
     42 H8          1.2917   -0.2196   -2.1036 H         1 <0>         0.1180
     43 H9         -0.2243    0.9238   -0.1775 H         1 <0>         0.1095
     44 H10        -0.4765   -0.8018   -0.5820 H         1 <0>         0.1052
     45 H11        -2.6516    1.0698    6.2632 H         1 <0>         0.1822
     46 H12        -0.7461    0.0739    7.8539 H         1 <0>         0.1890
     47 H13         1.1787   -0.8443    6.3282 H         1 <0>         0.2011
     48 H14        -3.5375    1.6579    4.1012 H         1 <0>         0.4456
     49 H15        -2.1046    0.8854    0.6353 H         1 <0>         0.1821
     50 H16        -2.8023    1.1113   -1.9570 H         1 <0>         0.1357
     51 H17        -4.9935    3.3528   -2.0648 H         1 <0>         0.0972
     52 H18        -3.8753    2.8620   -3.4469 H         1 <0>         0.1127
     53 H19        -4.8180    0.5082   -3.3738 H         1 <0>         0.1125
     54 H20        -5.9362    0.9990   -1.9917 H         1 <0>         0.0972
     55 H21         2.3148    1.3685    1.4766 H         1 <0>         0.4141
     56 H22         5.6014    0.0888    1.8488 H         1 <0>         0.1571
     57 H23         7.4466    1.3217    2.9641 H         1 <0>         0.1613
     58 H24         2.9090    3.1098    3.2433 H         1 <0>         0.1645
     59 H25         1.4487   -0.9095    3.4868 H         1 <0>         0.4476
@<TRIPOS>BOND
     1    1    2 1
     2    1   36 1
     3    1   37 1
     4    1   38 1
     5    2    6 1
     6    2    3 1
     7    2   26 1
     8    3    4 1
     9    3   39 1
    10    3   40 1
    11    4    5 1
    12    4   41 1
    13    4   42 1
    14    5    6 1
    15    5   43 1
    16    5   44 1
    17    6    7 1
    18    7   15 2
    19    7    8 1
    20    8    9 2
    21    9   10 1
    22    9   16 1
    23   10   14 1
    24   10   11 2
    25   11   12 1
    26   11   45 1
    27   12   13 2
    28   12   46 1
    29   13   14 1
    30   13   47 1
    31   14   15 1
    32   15   59 1
    33   16   17 1
    34   16   48 1
    35   17   22 2
    36   17   18 1
    37   18   19 2
    38   18   49 1
    39   19   20 1
    40   19   23 1
    41   20   21 1
    42   20   22 1
    43   23   25 1
    44   23   24 1
    45   23   50 1
    46   24   25 1
    47   24   51 1
    48   24   52 1
    49   25   53 1
    50   25   54 1
    51   26   27 2
    52   26   28 am
    53   28   29 1
    54   28   55 1
    55   29   34 ar
    56   29   30 ar
    57   30   31 ar
    58   30   56 1
    59   31   32 ar
    60   31   57 1
    61   32   33 ar
    62   32   35 1
    63   33   34 ar
    64   34   58 1
@<TRIPOS>MOLECULE
CHEMBL575448
   59    64     0     0     0
SMALL
USER_CHARGES

@<TRIPOS>ATOM
      1 C1         -0.2400   -0.0323   -0.4481 C.3       1 <0>        -0.1608
      2 C2         -0.9173   -1.3602   -0.1032 C.3       1 <0>         0.1638
      3 C3         -0.9523   -2.2705   -1.3489 C.3       1 <0>        -0.1176
      4 C4         -0.6761   -3.6784   -0.7582 C.3       1 <0>        -0.1322
      5 C5          0.3239   -3.3483    0.3779 C.3       1 <0>         0.0799
      6 N1         -0.1425   -2.0633    0.9296 N.pl3     1 <0>        -0.5749
      7 C6          0.1088   -1.5945    2.2120 C.cat     1 <0>         0.7200
      8 N2         -0.6553   -0.6140    2.7038 N.2       1 <0>        -0.5959
      9 C7         -0.4614   -0.1295    3.9186 C.2       1 <0>         0.5946
     10 C8          0.5781   -0.6599    4.7174 C.2       1 <0>        -0.1068
     11 C9          1.0359   -0.3876    5.9934 C.2       1 <0>        -0.0422
     12 C10         2.1046   -1.2520    6.2318 C.2       1 <0>        -0.1613
     13 C11         2.2764   -2.0194    5.1220 C.2       1 <0>         0.0935
     14 N3          1.3606   -1.6716    4.1999 N.pl3     1 <0>        -0.2317
     15 N4          1.0846   -2.1313    2.9043 N.pl3     1 <0>        -0.4707
     16 N5         -1.2652    0.8841    4.4022 N.pl3     1 <0>        -0.5597
     17 C12        -2.2770    1.4121    3.6031 C.2       1 <0>         0.2587
     18 C13        -2.2998    1.4336    2.2418 C.2       1 <0>        -0.2133
     19 C14        -3.4890    2.0493    1.8429 C.2       1 <0>         0.1357
     20 N6         -4.1598    2.3873    2.9141 N.2       1 <0>        -0.2440
     21 H1         -3.6859    2.1176    4.9651 H         1 <0>         0.4424
     22 N7         -3.4239    1.9942    4.0393 N.pl3     1 <0>        -0.4751
     23 C15        -3.9249    2.2847    0.4196 C.3       1 <0>        -0.0827
     24 C16        -2.9477    1.8967   -0.6919 C.3       1 <0>        -0.1184
     25 C17        -3.1956    3.3721   -0.3719 C.3       1 <0>        -0.1818
     26 C18        -2.3186   -1.1075    0.3904 C.2       1 <0>         0.5120
     27 O1         -3.0087   -0.2675   -0.1473 O.2       1 <0>        -0.4663
     28 N8         -2.8049   -1.8150    1.4293 N.am      1 <0>        -0.6484
     29 C19        -4.1419   -1.6608    1.8170 C.ar      1 <0>         0.0931
     30 C20        -5.1185   -1.3455    0.8748 C.ar      1 <0>        -0.0458
     31 C21        -6.4264   -1.2030    1.3049 C.ar      1 <0>        -0.1648
     32 C22        -6.7194   -1.3772    2.6481 C.ar      1 <0>         0.2983
     33 N9         -5.7696   -1.6756    3.5150 N.ar      1 <0>        -0.4903
     34 C23        -4.5129   -1.8255    3.1437 C.ar      1 <0>         0.1109
     35 F1         -7.9934   -1.2394    3.0760 F         1 <0>        -0.1066
     36 H2          0.8421   -0.1627   -0.4371 H         1 <0>         0.0770
     37 H3         -0.5571    0.2906   -1.4397 H         1 <0>         0.1035
     38 H4         -0.5225    0.7213    0.2870 H         1 <0>         0.0781
     39 H5         -1.9329   -2.2370   -1.8236 H         1 <0>         0.1107
     40 H6         -0.1711   -1.9884   -2.0548 H         1 <0>         0.1083
     41 H7         -1.5889   -4.1206   -0.3590 H         1 <0>         0.0906
     42 H8         -0.2204   -4.3317   -1.5023 H         1 <0>         0.1146
     43 H9          0.2962   -4.1227    1.1444 H         1 <0>         0.0963
     44 H10         1.3325   -3.2456   -0.0225 H         1 <0>         0.1041
     45 H11         0.6419    0.3520    6.6746 H         1 <0>         0.1796
     46 H12         2.6919   -1.3025    7.1367 H         1 <0>         0.1885
     47 H13         3.0281   -2.7852    5.0004 H         1 <0>         0.2040
     48 H14        -1.1253    1.2284    5.2981 H         1 <0>         0.4411
     49 H15        -1.5346    1.0440    1.5868 H         1 <0>         0.1629
     50 H16        -4.9888    2.1485    0.2251 H         1 <0>         0.1168
     51 H17        -1.9896    1.4711   -0.3937 H         1 <0>         0.0996
     52 H18        -3.3686    1.5049   -1.6179 H         1 <0>         0.1017
     53 H19        -3.7796    3.9511   -1.0874 H         1 <0>         0.1014
     54 H20        -2.4006    3.9173    0.1368 H         1 <0>         0.0905
     55 H21        -2.2289   -2.4311    1.9086 H         1 <0>         0.3988
     56 H22        -4.8613   -1.2151   -0.1660 H         1 <0>         0.1610
     57 H23        -7.2092   -0.9586    0.6021 H         1 <0>         0.1557
     58 H24        -3.7640   -2.0743    3.8810 H         1 <0>         0.1500
     59 H25         1.6178   -2.8440    2.5187 H         1 <0>         0.4537
@<TRIPOS>BOND
     1    1    2 1
     2    1   36 1
     3    1   37 1
     4    1   38 1
     5    2    6 1
     6    2    3 1
     7    2   26 1
     8    3    4 1
     9    3   39 1
    10    3   40 1
    11    4    5 1
    12    4   41 1
    13    4   42 1
    14    5    6 1
    15    5   43 1
    16    5   44 1
    17    6    7 1
    18    7   15 2
    19    7    8 1
    20    8    9 2
    21    9   10 1
    22    9   16 1
    23   10   14 1
    24   10   11 2
    25   11   12 1
    26   11   45 1
    27   12   13 2
    28   12   46 1
    29   13   14 1
    30   13   47 1
    31   14   15 1
    32   15   59 1
    33   16   17 1
    34   16   48 1
    35   17   18 2
    36   17   22 1
    37   18   49 1
    38   18   19 1
    39   19   23 1
    40   19   20 2
    41   20   22 1
    42   21   22 1
    43   23   25 1
    44   23   24 1
    45   23   50 1
    46   24   25 1
    47   24   51 1
    48   24   52 1
    49   25   53 1
    50   25   54 1
    51   26   27 2
    52   26   28 am
    53   28   29 1
    54   28   55 1
    55   29   34 ar
    56   29   30 ar
    57   30   31 ar
    58   30   56 1
    59   31   32 ar
    60   31   57 1
    61   32   33 ar
    62   32   35 1
    63   33   34 ar
    64   34   58 1
@<TRIPOS>MOLECULE
CHEMBL603852
   49    52     0     0     0
SMALL
USER_CHARGES

@<TRIPOS>ATOM
      1 C1          0.2976    0.5769    5.5232 C.3       1 <0>        -0.1094
      2 C2          0.4475    1.1875    4.1536 C.2       1 <0>         0.1584
      3 N1          0.6619    2.4175    3.8922 N.2       1 <0>        -0.2296
      4 N2          0.7533    2.6795    2.5286 N.am      1 <0>        -0.4352
      5 C3          0.5906    1.5521    1.8049 C.2       1 <0>         0.5333
      6 O1          0.6141    1.4400    0.5979 O.2       1 <0>        -0.4173
      7 C4          0.3783    0.4547    2.8301 C.3       1 <0>        -0.1005
      8 N3         -0.9369   -0.1658    2.6525 N.2       1 <0>        -0.1101
      9 N4         -1.1956   -1.2415    3.2124 N.2       1 <0>        -0.0932
     10 C5         -0.1952   -1.9583    3.8152 C.ar      1 <0>        -0.0035
     11 C6          0.9672   -2.2714    3.1078 C.ar      1 <0>        -0.1501
     12 C7          1.9703   -2.9932    3.7206 C.ar      1 <0>        -0.0056
     13 C8          1.8263   -3.4073    5.0330 C.ar      1 <0>        -0.6009
     14 C9          0.6770   -3.1004    5.7398 C.ar      1 <0>        -0.0101
     15 C10        -0.3313   -2.3739    5.1412 C.ar      1 <0>        -0.0998
     16 S1          3.1122   -4.3299    5.8076 S.o2      1 <0>         2.6336
     17 O2          2.5057   -5.0666    6.8606 O.2       1 <0>        -1.0093
     18 O3          3.8476   -4.9558    4.7652 O.2       1 <0>        -1.0104
     19 N5          4.1354   -3.2404    6.5205 N.2       1 <0>        -1.0491
     20 C11         5.2495   -3.6862    7.2103 C.ar      1 <0>         0.5947
     21 N6          5.4853   -4.9878    7.2859 N.ar      1 <0>        -0.6223
     22 C12         6.5412   -5.4469    7.9371 C.ar      1 <0>         0.1873
     23 C13         7.4047   -4.5484    8.5438 C.ar      1 <0>        -0.3410
     24 C14         7.1282   -3.1938    8.4451 C.ar      1 <0>         0.1773
     25 N7          6.0577   -2.8010    7.7747 N.ar      1 <0>        -0.5514
     26 C15         0.9753    3.8992    2.0000 C.2       1 <0>         0.5938
     27 O4          1.1227    4.0238    0.8002 O.2       1 <0>        -0.4624
     28 C16         1.0394    5.0841    2.8787 C.ar      1 <0>        -0.1441
     29 C17         1.0230    4.9295    4.2668 C.ar      1 <0>        -0.0632
     30 C18         1.0836    6.0398    5.0819 C.ar      1 <0>        -0.1254
     31 C19         1.1606    7.3067    4.5269 C.ar      1 <0>        -0.0018
     32 C20         1.1773    7.4666    3.1510 C.ar      1 <0>        -0.1278
     33 C21         1.1226    6.3639    2.3252 C.ar      1 <0>        -0.0404
     34 Cl1         1.2360    8.6998    5.5600 Cl        1 <0>        -0.0624
     35 H1          1.2753    0.2657    5.8912 H         1 <0>         0.1162
     36 H2         -0.1296    1.3128    6.2044 H         1 <0>         0.1045
     37 H3         -0.3612   -0.2895    5.4647 H         1 <0>         0.0947
     38 H4          1.1685   -0.2931    2.7639 H         1 <0>         0.1663
     39 H5          1.0805   -1.9494    2.0832 H         1 <0>         0.1342
     40 H6          2.8699   -3.2361    3.1747 H         1 <0>         0.1501
     41 H7          0.5709   -3.4269    6.7638 H         1 <0>         0.1536
     42 H8         -1.2259   -2.1312    5.6953 H         1 <0>         0.1478
     43 H9          6.7279   -6.5090    7.9956 H         1 <0>         0.1445
     44 H10         8.2740   -4.8963    9.0820 H         1 <0>         0.1237
     45 H11         7.7809   -2.4677    8.9068 H         1 <0>         0.1483
     46 H12         0.9626    3.9423    4.7007 H         1 <0>         0.1833
     47 H13         1.0706    5.9217    6.1553 H         1 <0>         0.1432
     48 H14         1.2371    8.4569    2.7243 H         1 <0>         0.1424
     49 H15         1.1399    6.4895    1.2527 H         1 <0>         0.1456
@<TRIPOS>BOND
     1    1    2 1
     2    1   35 1
     3    1   36 1
     4    1   37 1
     5    2    7 1
     6    2    3 2
     7    3    4 1
     8    4    5 am
     9    4   26 am
    10    5    6 2
    11    5    7 1
    12    7    8 1
    13    7   38 1
    14    8    9 2
    15    9   10 1
    16   10   15 ar
    17   10   11 ar
    18   11   12 ar
    19   11   39 1
    20   12   13 ar
    21   12   40 1
    22   13   14 ar
    23   13   16 1
    24   14   15 ar
    25   14   41 1
    26   15   42 1
    27   16   17 2
    28   16   18 2
    29   16   19 1
    30   19   20 1
    31   20   25 ar
    32   20   21 ar
    33   21   22 ar
    34   22   23 ar
    35   22   43 1
    36   23   24 ar
    37   23   44 1
    38   24   25 ar
    39   24   45 1
    40   26   27 2
    41   26   28 1
    42   28   33 ar
    43   28   29 ar
    44   29   30 ar
    45   29   46 1
    46   30   31 ar
    47   30   47 1
    48   31   32 ar
    49   31   34 1
    50   32   33 ar
    51   32   48 1
    52   33   49 1
@<TRIPOS>MOLECULE
CHEMBL603852
   50    53     0     0     0
SMALL
USER_CHARGES

@<TRIPOS>ATOM
      1 C1          0.2975    0.5770    5.5232 C.3       1 <0>        -0.1030
      2 C2          0.4474    1.1875    4.1537 C.2       1 <0>         0.1421
      3 N1          0.6619    2.4176    3.8922 N.2       1 <0>        -0.2158
      4 N2          0.7534    2.6795    2.5286 N.am      1 <0>        -0.4348
      5 C3          0.5906    1.5521    1.8049 C.2       1 <0>         0.5308
      6 O1          0.6142    1.4400    0.5979 O.2       1 <0>        -0.4093
      7 C4          0.3783    0.4547    2.8302 C.3       1 <0>        -0.0993
      8 N3         -0.9369   -0.1658    2.6525 N.2       1 <0>        -0.0934
      9 N4         -1.1957   -1.2415    3.2124 N.2       1 <0>        -0.0984
     10 C5         -0.1953   -1.9582    3.8152 C.ar      1 <0>         0.0288
     11 C6          0.9671   -2.2713    3.1079 C.ar      1 <0>        -0.1562
     12 C7          1.9702   -2.9932    3.7207 C.ar      1 <0>        -0.0003
     13 C8          1.8262   -3.4072    5.0331 C.ar      1 <0>        -0.6573
     14 C9          0.6769   -3.1004    5.7398 C.ar      1 <0>         0.0314
     15 C10        -0.3314   -2.3738    5.1412 C.ar      1 <0>        -0.1080
     16 S1          3.1120   -4.3299    5.8078 S.o2      1 <0>         2.6986
     17 O2          2.5055   -5.0666    6.8607 O.2       1 <0>        -0.9222
     18 O3          3.8474   -4.9558    4.7654 O.2       1 <0>        -0.9363
     19 N5          4.1353   -3.2404    6.5207 N.pl3     1 <0>        -1.0152
     20 C11         3.6875   -2.4526    7.5669 C.ar      1 <0>         0.5607
     21 N6          2.3858   -2.3607    7.7962 N.ar      1 <0>        -0.5640
     22 C12         1.9249   -1.6168    8.7881 C.ar      1 <0>         0.1922
     23 C13         2.8215   -0.9295    9.5910 C.ar      1 <0>        -0.2547
     24 C14         4.1763   -1.0478    9.3232 C.ar      1 <0>         0.1896
     25 N7          4.5711   -1.8125    8.3186 N.ar      1 <0>        -0.5359
     26 C15         0.9754    3.8992    2.0000 C.2       1 <0>         0.5927
     27 O4          1.1229    4.0238    0.8001 O.2       1 <0>        -0.4552
     28 C16         1.0395    5.0841    2.8786 C.ar      1 <0>        -0.1473
     29 C17         1.0230    4.9295    4.2668 C.ar      1 <0>        -0.0660
     30 C18         1.0836    6.0399    5.0819 C.ar      1 <0>        -0.1264
     31 C19         1.1607    7.3067    4.5268 C.ar      1 <0>         0.0000
     32 C20         1.1774    7.4666    3.1509 C.ar      1 <0>        -0.1250
     33 C21         1.1227    6.3639    2.3252 C.ar      1 <0>        -0.0379
     34 Cl1         1.2361    8.6999    5.5599 Cl        1 <0>        -0.0568
     35 H1          1.2752    0.2657    5.8913 H         1 <0>         0.1022
     36 H2         -0.1297    1.3129    6.2044 H         1 <0>         0.1071
     37 H3         -0.3613   -0.2894    5.4647 H         1 <0>         0.0946
     38 H4          1.1685   -0.2931    2.7639 H         1 <0>         0.1628
     39 H5          1.0805   -1.9494    2.0832 H         1 <0>         0.1406
     40 H6          2.8699   -3.2361    3.1748 H         1 <0>         0.1527
     41 H7          0.5707   -3.4269    6.7638 H         1 <0>         0.1661
     42 H8         -1.2260   -2.1311    5.6953 H         1 <0>         0.1541
     43 H9          5.0484   -3.1543    6.2051 H         1 <0>         0.4429
     44 H10         0.8626   -1.5456    8.9699 H         1 <0>         0.1809
     45 H11         2.4721   -0.3148   10.4074 H         1 <0>         0.1564
     46 H12         4.9010   -0.5250    9.9297 H         1 <0>         0.1773
     47 H13         0.9626    3.9423    4.7006 H         1 <0>         0.1793
     48 H14         1.0706    5.9217    6.1553 H         1 <0>         0.1427
     49 H15         1.2373    8.4569    2.7242 H         1 <0>         0.1451
     50 H16         1.1400    6.4895    1.2526 H         1 <0>         0.1471
@<TRIPOS>BOND
     1    1    2 1
     2    1   35 1
     3    1   36 1
     4    1   37 1
     5    2    7 1
     6    2    3 2
     7    3    4 1
     8    4    5 am
     9    4   26 am
    10    5    6 2
    11    5    7 1
    12    7    8 1
    13    7   38 1
    14    8    9 2
    15    9   10 1
    16   10   15 ar
    17   10   11 ar
    18   11   12 ar
    19   11   39 1
    20   12   13 ar
    21   12   40 1
    22   13   14 ar
    23   13   16 1
    24   14   15 ar
    25   14   41 1
    26   15   42 1
    27   16   17 2
    28   16   18 2
    29   16   19 1
    30   19   20 1
    31   19   43 1
    32   20   25 ar
    33   20   21 ar
    34   21   22 ar
    35   22   23 ar
    36   22   44 1
    37   23   24 ar
    38   23   45 1
    39   24   25 ar
    40   24   46 1
    41   26   27 2
    42   26   28 1
    43   28   33 ar
    44   28   29 ar
    45   29   30 ar
    46   29   47 1
    47   30   31 ar
    48   30   48 1
    49   31   32 ar
    50   31   34 1
    51   32   33 ar
    52   32   49 1
    53   33   50 1
@<TRIPOS>MOLECULE
CHEMBL603852
   49    52     0     0     0
SMALL
USER_CHARGES

@<TRIPOS>ATOM
      1 C1         -0.1478    1.4960    0.0197 C.3       1 <0>        -0.0867
      2 C2         -0.0881   -0.0098    0.0084 C.2       1 <0>         0.1738
      3 N1         -0.0565   -0.7586   -1.0239 N.2       1 <0>        -0.2422
      4 N2         -0.0034   -2.1144   -0.7152 N.am      1 <0>        -0.4379
      5 C3          0.0017   -2.3093    0.6202 C.2       1 <0>         0.5013
      6 O1          0.0424   -3.3669    1.2117 O.2       1 <0>        -0.4109
      7 C4         -0.0480   -0.9171    1.2202 C.3       1 <0>        -0.0014
      8 N3         -1.2576   -0.7502    2.0296 N.2       1 <0>        -0.2120
      9 N4         -1.3649   -1.3427    3.1136 N.2       1 <0>        -0.1544
     10 C5         -2.4964   -1.1866    3.8707 C.ar      1 <0>         0.0535
     11 C6         -3.5329   -0.3658    3.4218 C.ar      1 <0>        -0.1091
     12 C7         -4.6691   -0.2131    4.1889 C.ar      1 <0>        -0.0320
     13 C8         -4.7829   -0.8708    5.4010 C.ar      1 <0>        -0.5841
     14 C9         -3.7596   -1.6857    5.8518 C.ar      1 <0>        -0.0323
     15 C10        -2.6205   -1.8522    5.0918 C.ar      1 <0>        -0.0636
     16 S1         -6.2373   -0.6691    6.3750 S.o2      1 <0>         2.6353
     17 O2         -5.8702   -0.9566    7.7173 O.2       1 <0>        -1.0103
     18 O3         -6.8138    0.5719    5.9920 O.2       1 <0>        -1.0107
     19 N5         -7.3035   -1.8489    5.9129 N.2       1 <0>        -1.0483
     20 C11        -8.5459   -1.9341    6.5169 C.ar      1 <0>         0.5950
     21 N6         -8.8681   -1.0603    7.4593 N.ar      1 <0>        -0.6226
     22 C12       -10.0474   -1.1135    8.0562 C.ar      1 <0>         0.1871
     23 C13       -10.9493   -2.0982    7.6846 C.ar      1 <0>        -0.3430
     24 C14       -10.5799   -2.9960    6.6954 C.ar      1 <0>         0.1774
     25 N7         -9.3869   -2.8841    6.1352 N.ar      1 <0>        -0.5518
     26 C15         0.0375   -3.1034   -1.6299 C.2       1 <0>         0.5914
     27 O4          0.1741   -4.2567   -1.2721 O.2       1 <0>        -0.4625
     28 C16        -0.0835   -2.7855   -3.0667 C.ar      1 <0>        -0.1439
     29 C17        -0.0974   -1.4551   -3.4919 C.ar      1 <0>        -0.0643
     30 C18        -0.2102   -1.1648   -4.8350 C.ar      1 <0>        -0.1268
     31 C19        -0.3096   -2.1893   -5.7620 C.ar      1 <0>        -0.0023
     32 C20        -0.2964   -3.5108   -5.3467 C.ar      1 <0>        -0.1271
     33 C21        -0.1787   -3.8142   -4.0069 C.ar      1 <0>        -0.0405
     34 Cl1        -0.4519   -1.8156   -7.4513 Cl        1 <0>        -0.0624
     35 H1          0.8647    1.8997    0.0189 H         1 <0>         0.1009
     36 H2         -0.6789    1.8453   -0.8657 H         1 <0>         0.0977
     37 H3         -0.6722    1.8321    0.9142 H         1 <0>         0.0999
     38 H4          0.8436   -0.7220    1.8162 H         1 <0>         0.1552
     39 H5         -3.4450    0.1487    2.4763 H         1 <0>         0.1426
     40 H6         -5.4716    0.4215    3.8429 H         1 <0>         0.1465
     41 H7         -3.8547   -2.1959    6.7990 H         1 <0>         0.1515
     42 H8         -1.8244   -2.4921    5.4428 H         1 <0>         0.1441
     43 H9        -10.3041   -0.3987    8.8239 H         1 <0>         0.1442
     44 H10       -11.9188   -2.1646    8.1560 H         1 <0>         0.1232
     45 H11       -11.2594   -3.7753    6.3831 H         1 <0>         0.1479
     46 H12        -0.0204   -0.6555   -2.7700 H         1 <0>         0.1845
     47 H13        -0.2215   -0.1365   -5.1650 H         1 <0>         0.1423
     48 H14        -0.3745   -4.3051   -6.0742 H         1 <0>         0.1427
     49 H15        -0.1643   -4.8449   -3.6846 H         1 <0>         0.1455
@<TRIPOS>BOND
     1    1    2 1
     2    1   35 1
     3    1   36 1
     4    1   37 1
     5    2    7 1
     6    2    3 2
     7    3    4 1
     8    4    5 am
     9    4   26 am
    10    5    6 2
    11    5    7 1
    12    7    8 1
    13    7   38 1
    14    8    9 2
    15    9   10 1
    16   10   15 ar
    17   10   11 ar
    18   11   12 ar
    19   11   39 1
    20   12   13 ar
    21   12   40 1
    22   13   14 ar
    23   13   16 1
    24   14   15 ar
    25   14   41 1
    26   15   42 1
    27   16   17 2
    28   16   18 2
    29   16   19 1
    30   19   20 1
    31   20   25 ar
    32   20   21 ar
    33   21   22 ar
    34   22   23 ar
    35   22   43 1
    36   23   24 ar
    37   23   44 1
    38   24   25 ar
    39   24   45 1
    40   26   27 2
    41   26   28 1
    42   28   33 ar
    43   28   29 ar
    44   29   30 ar
    45   29   46 1
    46   30   31 ar
    47   30   47 1
    48   31   32 ar
    49   31   34 1
    50   32   33 ar
    51   32   48 1
    52   33   49 1
@<TRIPOS>MOLECULE
CHEMBL603852
   50    53     0     0     0
SMALL
USER_CHARGES

@<TRIPOS>ATOM
      1 C1         -0.1478    1.4960    0.0197 C.3       1 <0>        -0.0875
      2 C2         -0.0881   -0.0098    0.0084 C.2       1 <0>         0.1703
      3 N1         -0.0565   -0.7586   -1.0239 N.2       1 <0>        -0.2359
      4 N2         -0.0034   -2.1144   -0.7152 N.am      1 <0>        -0.4373
      5 C3          0.0017   -2.3093    0.6202 C.2       1 <0>         0.5026
      6 O1          0.0424   -3.3669    1.2117 O.2       1 <0>        -0.4111
      7 C4         -0.0480   -0.9171    1.2202 C.3       1 <0>        -0.0031
      8 N3         -1.2576   -0.7502    2.0296 N.2       1 <0>        -0.1918
      9 N4         -1.3649   -1.3427    3.1136 N.2       1 <0>        -0.1656
     10 C5         -2.4964   -1.1866    3.8707 C.ar      1 <0>         0.0862
     11 C6         -3.5329   -0.3658    3.4218 C.ar      1 <0>        -0.1189
     12 C7         -4.6691   -0.2131    4.1889 C.ar      1 <0>        -0.0256
     13 C8         -4.7829   -0.8708    5.4010 C.ar      1 <0>        -0.6422
     14 C9         -3.7596   -1.6857    5.8518 C.ar      1 <0>         0.0105
     15 C10        -2.6205   -1.8522    5.0918 C.ar      1 <0>        -0.0736
     16 S1         -6.2373   -0.6691    6.3750 S.o2      1 <0>         2.6994
     17 O2         -5.8702   -0.9566    7.7173 O.2       1 <0>        -0.9246
     18 O3         -6.8138    0.5719    5.9920 O.2       1 <0>        -0.9378
     19 N5         -7.3035   -1.8489    5.9129 N.pl3     1 <0>        -1.0145
     20 C11        -7.0008   -3.1810    6.1355 C.ar      1 <0>         0.5602
     21 N6         -5.7566   -3.5193    6.4404 N.ar      1 <0>        -0.5622
     22 C12        -5.4339   -4.7832    6.6595 C.ar      1 <0>         0.1951
     23 C13        -6.4154   -5.7575    6.5668 C.ar      1 <0>        -0.2556
     24 C14        -7.7066   -5.3688    6.2459 C.ar      1 <0>         0.1883
     25 N7         -7.9632   -4.0870    6.0439 N.ar      1 <0>        -0.5375
     26 C15         0.0375   -3.1034   -1.6299 C.2       1 <0>         0.5925
     27 O4          0.1741   -4.2567   -1.2721 O.2       1 <0>        -0.4607
     28 C16        -0.0835   -2.7855   -3.0667 C.ar      1 <0>        -0.1478
     29 C17        -0.0974   -1.4551   -3.4919 C.ar      1 <0>        -0.0646
     30 C18        -0.2102   -1.1648   -4.8350 C.ar      1 <0>        -0.1266
     31 C19        -0.3096   -2.1893   -5.7620 C.ar      1 <0>        -0.0004
     32 C20        -0.2964   -3.5108   -5.3467 C.ar      1 <0>        -0.1263
     33 C21        -0.1787   -3.8142   -4.0069 C.ar      1 <0>        -0.0396
     34 Cl1        -0.4519   -1.8156   -7.4513 Cl        1 <0>        -0.0576
     35 H1          0.8647    1.8997    0.0189 H         1 <0>         0.1034
     36 H2         -0.6789    1.8453   -0.8657 H         1 <0>         0.0994
     37 H3         -0.6722    1.8321    0.9142 H         1 <0>         0.0984
     38 H4          0.8436   -0.7220    1.8162 H         1 <0>         0.1604
     39 H5         -3.4450    0.1487    2.4763 H         1 <0>         0.1480
     40 H6         -5.4716    0.4215    3.8429 H         1 <0>         0.1484
     41 H7         -3.8547   -2.1959    6.7990 H         1 <0>         0.1630
     42 H8         -1.8244   -2.4921    5.4428 H         1 <0>         0.1498
     43 H9         -8.1402   -1.6064    5.4863 H         1 <0>         0.4424
     44 H10        -4.4179   -5.0528    6.9073 H         1 <0>         0.1804
     45 H11        -6.1792   -6.7969    6.7405 H         1 <0>         0.1561
     46 H12        -8.4943   -6.1032    6.1655 H         1 <0>         0.1776
     47 H13        -0.0204   -0.6555   -2.7700 H         1 <0>         0.1830
     48 H14        -0.2215   -0.1365   -5.1650 H         1 <0>         0.1433
     49 H15        -0.3745   -4.3051   -6.0742 H         1 <0>         0.1441
     50 H16        -0.1643   -4.8449   -3.6846 H         1 <0>         0.1456
@<TRIPOS>BOND
     1    1    2 1
     2    1   35 1
     3    1   36 1
     4    1   37 1
     5    2    7 1
     6    2    3 2
     7    3    4 1
     8    4    5 am
     9    4   26 am
    10    5    6 2
    11    5    7 1
    12    7    8 1
    13    7   38 1
    14    8    9 2
    15    9   10 1
    16   10   15 ar
    17   10   11 ar
    18   11   12 ar
    19   11   39 1
    20   12   13 ar
    21   12   40 1
    22   13   14 ar
    23   13   16 1
    24   14   15 ar
    25   14   41 1
    26   15   42 1
    27   16   17 2
    28   16   18 2
    29   16   19 1
    30   19   20 1
    31   19   43 1
    32   20   25 ar
    33   20   21 ar
    34   21   22 ar
    35   22   23 ar
    36   22   44 1
    37   23   24 ar
    38   23   45 1
    39   24   25 ar
    40   24   46 1
    41   26   27 2
    42   26   28 1
    43   28   33 ar
    44   28   29 ar
    45   29   30 ar
    46   29   47 1
    47   30   31 ar
    48   30   48 1
    49   31   32 ar
    50   31   34 1
    51   32   33 ar
    52   32   49 1
    53   33   50 1
@<TRIPOS>MOLECULE
CHEMBL603852
   49    52     0     0     0
SMALL
USER_CHARGES

@<TRIPOS>ATOM
      1 C1          0.1480    1.9426    5.0086 C.3       1 <0>        -0.0911
      2 C2         -0.3074    1.7081    3.5914 C.2       1 <0>         0.1737
      3 N1         -0.7440    2.5908    2.7804 N.2       1 <0>        -0.2356
      4 N2         -1.0888    2.0691    1.5373 N.am      1 <0>        -0.4327
      5 C3         -0.8742    0.7375    1.4921 C.2       1 <0>         0.5235
      6 O1         -1.0714   -0.0106    0.5587 O.2       1 <0>        -0.4185
      7 C4         -0.3264    0.3816    2.8610 C.3       1 <0>        -0.0996
      8 N3          1.0280   -0.1659    2.7510 N.2       1 <0>        -0.1296
      9 N4          1.3033   -1.2509    3.2844 N.2       1 <0>        -0.0886
     10 C5          0.3010   -2.1225    3.6218 C.ar      1 <0>        -0.0092
     11 C6          0.4106   -2.9057    4.7725 C.ar      1 <0>        -0.0803
     12 C7         -0.6020   -3.7810    5.1062 C.ar      1 <0>        -0.0185
     13 C8         -1.7242   -3.8841    4.3033 C.ar      1 <0>        -0.5929
     14 C9         -1.8392   -3.1109    3.1616 C.ar      1 <0>        -0.0130
     15 C10        -0.8369   -2.2270    2.8195 C.ar      1 <0>        -0.1518
     16 S1         -3.0123   -5.0056    4.7364 S.o2      1 <0>         2.6340
     17 O2         -3.7051   -5.3123    3.5343 O.2       1 <0>        -1.0090
     18 O3         -2.4210   -6.0080    5.5518 O.2       1 <0>        -1.0083
     19 N5         -4.0773   -4.1799    5.6990 N.2       1 <0>        -1.0492
     20 C11        -5.2010   -4.8185    6.1940 C.ar      1 <0>         0.5948
     21 N6         -5.4067   -6.0921    5.8925 N.ar      1 <0>        -0.6223
     22 C12        -6.4703   -6.7320    6.3496 C.ar      1 <0>         0.1874
     23 C13        -7.3741   -6.0538    7.1523 C.ar      1 <0>        -0.3416
     24 C14        -7.1284   -4.7222    7.4481 C.ar      1 <0>         0.1772
     25 N7         -6.0427   -4.1431    6.9626 N.ar      1 <0>        -0.5518
     26 C15        -1.5735    2.7982    0.5126 C.2       1 <0>         0.5921
     27 O4         -1.7670    2.2753   -0.5672 O.2       1 <0>        -0.4603
     28 C16        -1.8696    4.2323    0.7020 C.ar      1 <0>        -0.1431
     29 C17        -1.5137    4.8706    1.8924 C.ar      1 <0>        -0.0637
     30 C18        -1.7925    6.2100    2.0630 C.ar      1 <0>        -0.1263
     31 C19        -2.4241    6.9226    1.0569 C.ar      1 <0>        -0.0021
     32 C20        -2.7795    6.2954   -0.1259 C.ar      1 <0>        -0.1272
     33 C21        -2.5015    4.9576   -0.3107 C.ar      1 <0>        -0.0400
     34 Cl1        -2.7721    8.6088    1.2796 Cl        1 <0>        -0.0627
     35 H1          1.2140    2.1702    5.0148 H         1 <0>         0.1072
     36 H2         -0.4048    2.7802    5.4340 H         1 <0>         0.1016
     37 H3         -0.0357    1.0471    5.6022 H         1 <0>         0.0953
     38 H4         -0.9869   -0.3242    3.3646 H         1 <0>         0.1588
     39 H5          1.2863   -2.8267    5.3996 H         1 <0>         0.1480
     40 H6         -0.5185   -4.3875    5.9959 H         1 <0>         0.1536
     41 H7         -2.7177   -3.1965    2.5392 H         1 <0>         0.1495
     42 H8         -0.9300   -1.6208    1.9306 H         1 <0>         0.1407
     43 H9         -6.6327   -7.7701    6.1001 H         1 <0>         0.1447
     44 H10        -8.2510   -6.5521    7.5386 H         1 <0>         0.1237
     45 H11        -7.8132   -4.1652    8.0704 H         1 <0>         0.1483
     46 H12        -1.0216    4.3159    2.6776 H         1 <0>         0.1839
     47 H13        -1.5181    6.7046    2.9831 H         1 <0>         0.1426
     48 H14        -3.2720    6.8563   -0.9064 H         1 <0>         0.1427
     49 H15        -2.7753    4.4707   -1.2350 H         1 <0>         0.1459
@<TRIPOS>BOND
     1    1    2 1
     2    1   35 1
     3    1   36 1
     4    1   37 1
     5    2    7 1
     6    2    3 2
     7    3    4 1
     8    4    5 am
     9    4   26 am
    10    5    6 2
    11    5    7 1
    12    7    8 1
    13    7   38 1
    14    8    9 2
    15    9   10 1
    16   10   15 ar
    17   10   11 ar
    18   11   12 ar
    19   11   39 1
    20   12   13 ar
    21   12   40 1
    22   13   14 ar
    23   13   16 1
    24   14   15 ar
    25   14   41 1
    26   15   42 1
    27   16   17 2
    28   16   18 2
    29   16   19 1
    30   19   20 1
    31   20   25 ar
    32   20   21 ar
    33   21   22 ar
    34   22   23 ar
    35   22   43 1
    36   23   24 ar
    37   23   44 1
    38   24   25 ar
    39   24   45 1
    40   26   27 2
    41   26   28 1
    42   28   33 ar
    43   28   29 ar
    44   29   30 ar
    45   29   46 1
    46   30   31 ar
    47   30   47 1
    48   31   32 ar
    49   31   34 1
    50   32   33 ar
    51   32   48 1
    52   33   49 1
@<TRIPOS>MOLECULE
CHEMBL603852
   50    53     0     0     0
SMALL
USER_CHARGES

@<TRIPOS>ATOM
      1 C1         -0.0022    1.8487    4.9903 C.3       1 <0>        -0.0916
      2 C2         -0.4456    1.5983    3.5720 C.2       1 <0>         0.1669
      3 N1         -0.9245    2.4621    2.7646 N.2       1 <0>        -0.2260
      4 N2         -1.2434    1.9296    1.5192 N.am      1 <0>        -0.4316
      5 C3         -0.9642    0.6103    1.4684 C.2       1 <0>         0.5234
      6 O1         -1.1246   -0.1427    0.5318 O.2       1 <0>        -0.4189
      7 C4         -0.3998    0.2756    2.8360 C.3       1 <0>        -0.1011
      8 N3          0.9796   -0.2048    2.7241 N.2       1 <0>        -0.1083
      9 N4          1.3035   -1.2854    3.2388 N.2       1 <0>        -0.0966
     10 C5          0.3398   -2.1983    3.5793 C.ar      1 <0>         0.0220
     11 C6         -0.7970   -2.3481    2.7826 C.ar      1 <0>        -0.1595
     12 C7         -1.7632   -3.2688    3.1313 C.ar      1 <0>        -0.0076
     13 C8         -1.6079   -4.0426    4.2678 C.ar      1 <0>        -0.6506
     14 C9         -0.4838   -3.8993    5.0618 C.ar      1 <0>         0.0230
     15 C10         0.4931   -2.9867    4.7214 C.ar      1 <0>        -0.0883
     16 S1         -2.8476   -5.2155    4.7063 S.o2      1 <0>         2.7001
     17 O2         -2.7283   -5.4284    6.1062 O.2       1 <0>        -0.9229
     18 O3         -4.0561   -4.7738    4.1032 O.2       1 <0>        -0.9366
     19 N5         -2.4487   -6.6463    3.9743 N.pl3     1 <0>        -1.0141
     20 C11        -1.2921   -7.3123    4.3407 C.ar      1 <0>         0.5604
     21 N6         -0.3732   -6.6713    5.0480 N.ar      1 <0>        -0.5641
     22 C12         0.7432   -7.2786    5.4147 C.ar      1 <0>         0.1949
     23 C13         0.9448   -8.6006    5.0503 C.ar      1 <0>        -0.2550
     24 C14        -0.0368   -9.2411    4.3105 C.ar      1 <0>         0.1890
     25 N7         -1.1324   -8.5773    3.9806 N.ar      1 <0>        -0.5367
     26 C15        -1.7630    2.6386    0.4975 C.2       1 <0>         0.5928
     27 O4         -1.9381    2.1092   -0.5824 O.2       1 <0>        -0.4568
     28 C16        -2.1195    4.0584    0.6901 C.ar      1 <0>        -0.1477
     29 C17        -1.7850    4.7103    1.8793 C.ar      1 <0>        -0.0642
     30 C18        -2.1203    6.0363    2.0530 C.ar      1 <0>        -0.1262
     31 C19        -2.7874    6.7220    1.0511 C.ar      1 <0>         0.0002
     32 C20        -3.1219    6.0811   -0.1305 C.ar      1 <0>        -0.1259
     33 C21        -2.7875    4.7568   -0.3184 C.ar      1 <0>        -0.0383
     34 Cl1        -3.2065    8.3914    1.2776 Cl        1 <0>        -0.0571
     35 H1          1.0514    2.1279    4.9978 H         1 <0>         0.1093
     36 H2         -0.5953    2.6565    5.4191 H         1 <0>         0.1039
     37 H3         -0.1422    0.9427    5.5800 H         1 <0>         0.0927
     38 H4         -1.0252   -0.4637    3.3364 H         1 <0>         0.1550
     39 H5         -0.9198   -1.7442    1.8957 H         1 <0>         0.1466
     40 H6         -2.6430   -3.3857    2.5159 H         1 <0>         0.1518
     41 H7         -0.3690   -4.5062    5.9477 H         1 <0>         0.1655
     42 H8          1.3721   -2.8790    5.3395 H         1 <0>         0.1539
     43 H9         -3.0257   -7.0178    3.2887 H         1 <0>         0.4433
     44 H10         1.4887   -6.7508    5.9909 H         1 <0>         0.1808
     45 H11         1.8473   -9.1203    5.3362 H         1 <0>         0.1566
     46 H12         0.0896  -10.2708    4.0102 H         1 <0>         0.1780
     47 H13        -1.2652    4.1766    2.6613 H         1 <0>         0.1816
     48 H14        -1.8625    6.5414    2.9722 H         1 <0>         0.1435
     49 H15        -3.6423    6.6210   -0.9077 H         1 <0>         0.1446
     50 H16        -3.0451    4.2593   -1.2417 H         1 <0>         0.1464
@<TRIPOS>BOND
     1    1    2 1
     2    1   35 1
     3    1   36 1
     4    1   37 1
     5    2    7 1
     6    2    3 2
     7    3    4 1
     8    4    5 am
     9    4   26 am
    10    5    6 2
    11    5    7 1
    12    7    8 1
    13    7   38 1
    14    8    9 2
    15    9   10 1
    16   10   15 ar
    17   10   11 ar
    18   11   12 ar
    19   11   39 1
    20   12   13 ar
    21   12   40 1
    22   13   14 ar
    23   13   16 1
    24   14   15 ar
    25   14   41 1
    26   15   42 1
    27   16   17 2
    28   16   18 2
    29   16   19 1
    30   19   20 1
    31   19   43 1
    32   20   25 ar
    33   20   21 ar
    34   21   22 ar
    35   22   23 ar
    36   22   44 1
    37   23   24 ar
    38   23   45 1
    39   24   25 ar
    40   24   46 1
    41   26   27 2
    42   26   28 1
    43   28   33 ar
    44   28   29 ar
    45   29   30 ar
    46   29   47 1
    47   30   31 ar
    48   30   48 1
    49   31   32 ar
    50   31   34 1
    51   32   33 ar
    52   32   49 1
    53   33   50 1
@<TRIPOS>MOLECULE
CHEMBL603852
   49    52     0     0     0
SMALL
USER_CHARGES

@<TRIPOS>ATOM
      1 C1         -0.1478    1.4960    0.0197 C.3       1 <0>        -0.0857
      2 C2         -0.0881   -0.0098    0.0084 C.2       1 <0>         0.1749
      3 N1         -0.0565   -0.7586   -1.0239 N.2       1 <0>        -0.2431
      4 N2         -0.0034   -2.1144   -0.7152 N.am      1 <0>        -0.4380
      5 C3          0.0017   -2.3093    0.6202 C.2       1 <0>         0.5013
      6 O1          0.0424   -3.3669    1.2117 O.2       1 <0>        -0.4119
      7 C4         -0.0480   -0.9171    1.2202 C.3       1 <0>        -0.0017
      8 N3          1.1503   -0.6548    2.0212 N.2       1 <0>        -0.2107
      9 N4          1.3116   -1.2366    3.1043 N.2       1 <0>        -0.1546
     10 C5          2.4324   -0.9913    3.8536 C.ar      1 <0>         0.0537
     11 C6          3.3920   -0.0826    3.4032 C.ar      1 <0>        -0.1090
     12 C7          4.5180    0.1596    4.1624 C.ar      1 <0>        -0.0320
     13 C8          4.6978   -0.4959    5.3676 C.ar      1 <0>        -0.5841
     14 C9          3.7508   -1.3977    5.8199 C.ar      1 <0>        -0.0323
     15 C10         2.6172   -1.6446    5.0736 C.ar      1 <0>        -0.0636
     16 S1          6.1396   -0.1814    6.3304 S.o2      1 <0>         2.6350
     17 O2          6.3369   -1.3242    7.1515 O.2       1 <0>        -1.0103
     18 O3          7.1332    0.2914    5.4313 O.2       1 <0>        -1.0107
     19 N5          5.7844    1.0764    7.3473 N.2       1 <0>        -1.0479
     20 C11         6.7423    1.5442    8.2301 C.ar      1 <0>         0.5947
     21 N6          7.9400    0.9779    8.2447 N.ar      1 <0>        -0.6225
     22 C12         8.8780    1.4012    9.0757 C.ar      1 <0>         0.1873
     23 C13         8.5952    2.4497    9.9370 C.ar      1 <0>        -0.3430
     24 C14         7.3323    3.0192    9.8954 C.ar      1 <0>         0.1772
     25 N7          6.4415    2.5513    9.0368 N.ar      1 <0>        -0.5518
     26 C15         0.0375   -3.1034   -1.6299 C.2       1 <0>         0.5912
     27 O4          0.1741   -4.2567   -1.2721 O.2       1 <0>        -0.4630
     28 C16        -0.0835   -2.7855   -3.0667 C.ar      1 <0>        -0.1438
     29 C17        -0.0974   -1.4551   -3.4919 C.ar      1 <0>        -0.0640
     30 C18        -0.2102   -1.1648   -4.8350 C.ar      1 <0>        -0.1267
     31 C19        -0.3096   -2.1893   -5.7620 C.ar      1 <0>        -0.0024
     32 C20        -0.2964   -3.5108   -5.3467 C.ar      1 <0>        -0.1274
     33 C21        -0.1787   -3.8142   -4.0069 C.ar      1 <0>        -0.0409
     34 Cl1        -0.4519   -1.8156   -7.4513 Cl        1 <0>        -0.0623
     35 H1          0.8647    1.8997    0.0189 H         1 <0>         0.1070
     36 H2         -0.6789    1.8453   -0.8657 H         1 <0>         0.0952
     37 H3         -0.6722    1.8321    0.9142 H         1 <0>         0.0960
     38 H4         -0.9480   -0.7930    1.8224 H         1 <0>         0.1547
     39 H5          3.2532    0.4292    2.4623 H         1 <0>         0.1425
     40 H6          5.2610    0.8623    3.8151 H         1 <0>         0.1465
     41 H7          3.8975   -1.9062    6.7613 H         1 <0>         0.1515
     42 H8          1.8767   -2.3454    5.4300 H         1 <0>         0.1441
     43 H9          9.8523    0.9354    9.0831 H         1 <0>         0.1441
     44 H10         9.3427    2.8148   10.6258 H         1 <0>         0.1231
     45 H11         7.0798    3.8374   10.5535 H         1 <0>         0.1479
     46 H12        -0.0204   -0.6555   -2.7700 H         1 <0>         0.1847
     47 H13        -0.2215   -0.1365   -5.1650 H         1 <0>         0.1426
     48 H14        -0.3745   -4.3051   -6.0742 H         1 <0>         0.1425
     49 H15        -0.1643   -4.8449   -3.6846 H         1 <0>         0.1453
@<TRIPOS>BOND
     1    1    2 1
     2    1   35 1
     3    1   36 1
     4    1   37 1
     5    2    7 1
     6    2    3 2
     7    3    4 1
     8    4    5 am
     9    4   26 am
    10    5    6 2
    11    5    7 1
    12    7    8 1
    13    7   38 1
    14    8    9 2
    15    9   10 1
    16   10   15 ar
    17   10   11 ar
    18   11   12 ar
    19   11   39 1
    20   12   13 ar
    21   12   40 1
    22   13   14 ar
    23   13   16 1
    24   14   15 ar
    25   14   41 1
    26   15   42 1
    27   16   17 2
    28   16   18 2
    29   16   19 1
    30   19   20 1
    31   20   25 ar
    32   20   21 ar
    33   21   22 ar
    34   22   23 ar
    35   22   43 1
    36   23   24 ar
    37   23   44 1
    38   24   25 ar
    39   24   45 1
    40   26   27 2
    41   26   28 1
    42   28   33 ar
    43   28   29 ar
    44   29   30 ar
    45   29   46 1
    46   30   31 ar
    47   30   47 1
    48   31   32 ar
    49   31   34 1
    50   32   33 ar
    51   32   48 1
    52   33   49 1
@<TRIPOS>MOLECULE
CHEMBL603852
   50    53     0     0     0
SMALL
USER_CHARGES

@<TRIPOS>ATOM
      1 C1         -0.1478    1.4960    0.0197 C.3       1 <0>        -0.0859
      2 C2         -0.0881   -0.0098    0.0084 C.2       1 <0>         0.1690
      3 N1         -0.0565   -0.7586   -1.0239 N.2       1 <0>        -0.2346
      4 N2         -0.0034   -2.1144   -0.7152 N.am      1 <0>        -0.4373
      5 C3          0.0017   -2.3093    0.6202 C.2       1 <0>         0.5021
      6 O1          0.0424   -3.3669    1.2117 O.2       1 <0>        -0.4100
      7 C4         -0.0480   -0.9171    1.2202 C.3       1 <0>        -0.0028
      8 N3          1.1503   -0.6548    2.0212 N.2       1 <0>        -0.1906
      9 N4          1.3116   -1.2366    3.1043 N.2       1 <0>        -0.1662
     10 C5          2.4324   -0.9913    3.8536 C.ar      1 <0>         0.0865
     11 C6          3.3920   -0.0826    3.4032 C.ar      1 <0>        -0.1188
     12 C7          4.5180    0.1596    4.1624 C.ar      1 <0>        -0.0256
     13 C8          4.6978   -0.4959    5.3676 C.ar      1 <0>        -0.6421
     14 C9          3.7508   -1.3977    5.8199 C.ar      1 <0>         0.0105
     15 C10         2.6172   -1.6446    5.0736 C.ar      1 <0>        -0.0736
     16 S1          6.1396   -0.1814    6.3304 S.o2      1 <0>         2.6988
     17 O2          6.3369   -1.3242    7.1515 O.2       1 <0>        -0.9244
     18 O3          7.1332    0.2914    5.4313 O.2       1 <0>        -0.9376
     19 N5          5.7844    1.0764    7.3473 N.pl3     1 <0>        -1.0143
     20 C11         4.8212    0.9218    8.3291 C.ar      1 <0>         0.5608
     21 N6          3.9925   -0.1100    8.2653 N.ar      1 <0>        -0.5621
     22 C12         3.0610   -0.2872    9.1875 C.ar      1 <0>         0.1950
     23 C13         2.9586    0.6222   10.2285 C.ar      1 <0>        -0.2562
     24 C14         3.8415    1.6900   10.2648 C.ar      1 <0>         0.1883
     25 N7          4.7532    1.8061    9.3134 N.ar      1 <0>        -0.5375
     26 C15         0.0375   -3.1034   -1.6299 C.2       1 <0>         0.5922
     27 O4          0.1741   -4.2567   -1.2721 O.2       1 <0>        -0.4599
     28 C16        -0.0835   -2.7855   -3.0667 C.ar      1 <0>        -0.1474
     29 C17        -0.0974   -1.4551   -3.4919 C.ar      1 <0>        -0.0646
     30 C18        -0.2102   -1.1648   -4.8350 C.ar      1 <0>        -0.1267
     31 C19        -0.3096   -2.1893   -5.7620 C.ar      1 <0>        -0.0005
     32 C20        -0.2964   -3.5108   -5.3467 C.ar      1 <0>        -0.1262
     33 C21        -0.1787   -3.8142   -4.0069 C.ar      1 <0>        -0.0394
     34 Cl1        -0.4519   -1.8156   -7.4513 Cl        1 <0>        -0.0578
     35 H1          0.8647    1.8997    0.0189 H         1 <0>         0.1056
     36 H2         -0.6789    1.8453   -0.8657 H         1 <0>         0.0980
     37 H3         -0.6722    1.8321    0.9142 H         1 <0>         0.0952
     38 H4         -0.9480   -0.7930    1.8224 H         1 <0>         0.1588
     39 H5          3.2532    0.4292    2.4623 H         1 <0>         0.1480
     40 H6          5.2610    0.8623    3.8151 H         1 <0>         0.1484
     41 H7          3.8975   -1.9062    6.7613 H         1 <0>         0.1630
     42 H8          1.8767   -2.3454    5.4300 H         1 <0>         0.1498
     43 H9          6.2515    1.9215    7.2549 H         1 <0>         0.4425
     44 H10         2.3882   -1.1300    9.1299 H         1 <0>         0.1802
     45 H11         2.2070    0.5015   10.9946 H         1 <0>         0.1558
     46 H12         3.7882    2.4165   11.0622 H         1 <0>         0.1774
     47 H13        -0.0204   -0.6555   -2.7700 H         1 <0>         0.1827
     48 H14        -0.2215   -0.1365   -5.1650 H         1 <0>         0.1432
     49 H15        -0.3745   -4.3051   -6.0742 H         1 <0>         0.1442
     50 H16        -0.1643   -4.8449   -3.6846 H         1 <0>         0.1458
@<TRIPOS>BOND
     1    1    2 1
     2    1   35 1
     3    1   36 1
     4    1   37 1
     5    2    7 1
     6    2    3 2
     7    3    4 1
     8    4    5 am
     9    4   26 am
    10    5    6 2
    11    5    7 1
    12    7    8 1
    13    7   38 1
    14    8    9 2
    15    9   10 1
    16   10   15 ar
    17   10   11 ar
    18   11   12 ar
    19   11   39 1
    20   12   13 ar
    21   12   40 1
    22   13   14 ar
    23   13   16 1
    24   14   15 ar
    25   14   41 1
    26   15   42 1
    27   16   17 2
    28   16   18 2
    29   16   19 1
    30   19   20 1
    31   19   43 1
    32   20   25 ar
    33   20   21 ar
    34   21   22 ar
    35   22   23 ar
    36   22   44 1
    37   23   24 ar
    38   23   45 1
    39   24   25 ar
    40   24   46 1
    41   26   27 2
    42   26   28 1
    43   28   33 ar
    44   28   29 ar
    45   29   30 ar
    46   29   47 1
    47   30   31 ar
    48   30   48 1
    49   31   32 ar
    50   31   34 1
    51   32   33 ar
    52   32   49 1
    53   33   50 1
@<TRIPOS>MOLECULE
CHEMBL228654
   35    37     0     0     0
SMALL
USER_CHARGES

@<TRIPOS>ATOM
      1 C1         -0.8518    1.3930    0.1108 C.3       1 <0>        -0.1323
      2 C2         -0.5061   -0.0731    0.0659 C.2       1 <0>         0.0791
      3 C3         -0.1851   -0.7432    1.2308 C.2       1 <0>        -0.1514
      4 C4         -0.0179   -0.1669    2.5836 C.ar      1 <0>        -0.0853
      5 C5         -0.1192    1.1258    3.0873 C.ar      1 <0>        -0.0938
      6 C6          0.0999    1.3554    4.4363 C.ar      1 <0>         0.1420
      7 C7          0.4194    0.2954    5.2781 C.ar      1 <0>        -0.0792
      8 C8          0.5208   -0.9878    4.7825 C.ar      1 <0>        -0.1167
      9 C9          0.3040   -1.2353    3.4313 C.ar      1 <0>         0.1360
     10 N1          0.3426   -2.4111    2.6883 N.am      1 <0>        -0.6567
     11 C10         0.0577   -2.1822    1.3952 C.2       1 <0>         0.5558
     12 O1          0.0119   -3.0211    0.5130 O.2       1 <0>        -0.4846
     13 N2          0.0002    2.6549    4.9518 N.am      1 <0>        -0.6834
     14 C11        -0.4512    2.8492    6.2068 C.2       1 <0>         0.7054
     15 O2         -0.8606    1.9077    6.8582 O.2       1 <0>        -0.5748
     16 N3         -0.4489    4.0872    6.7396 N.am      1 <0>        -0.8610
     17 C12        -0.5104   -0.7612   -1.1650 C.2       1 <0>         0.0008
     18 C13         0.5881   -1.3300   -1.7910 C.2       1 <0>        -0.1277
     19 C14         0.1309   -1.9038   -2.9788 C.2       1 <0>        -0.2002
     20 C15        -1.2050   -1.6846   -3.0621 C.2       1 <0>         0.0060
     21 N4         -1.6085   -0.9969   -1.9642 N.pl3     1 <0>        -0.5387
     22 H1         -2.5174   -0.7161   -1.7745 H         1 <0>         0.4147
     23 H2         -0.0331    1.9453    0.5721 H         1 <0>         0.0883
     24 H3         -1.0118    1.7598   -0.9030 H         1 <0>         0.0753
     25 H4         -1.7605    1.5343    0.6960 H         1 <0>         0.0856
     26 H5         -0.3671    1.9464    2.4304 H         1 <0>         0.1345
     27 H6          0.5898    0.4786    6.3287 H         1 <0>         0.1454
     28 H7          0.7695   -1.8029    5.4460 H         1 <0>         0.1334
     29 H8          0.5448   -3.2851    3.0575 H         1 <0>         0.4178
     30 H9          0.2561    3.4144    4.4054 H         1 <0>         0.4080
     31 H10        -0.1223    4.8383    6.2200 H         1 <0>         0.3995
     32 H11        -0.7738    4.2271    7.6428 H         1 <0>         0.4200
     33 H12         1.6054   -1.3292   -1.4284 H         1 <0>         0.1339
     34 H13         0.7347   -2.4293   -3.7038 H         1 <0>         0.1380
     35 H14        -1.8448   -2.0085   -3.8696 H         1 <0>         0.1663
@<TRIPOS>BOND
     1    1    2 1
     2    1   23 1
     3    1   24 1
     4    1   25 1
     5    2    3 2
     6    2   17 1
     7    3   11 1
     8    3    4 1
     9    4    9 ar
    10    4    5 ar
    11    5    6 ar
    12    5   26 1
    13    6    7 ar
    14    6   13 1
    15    7    8 ar
    16    7   27 1
    17    8    9 ar
    18    8   28 1
    19    9   10 1
    20   10   11 am
    21   10   29 1
    22   11   12 2
    23   13   14 am
    24   13   30 1
    25   14   15 2
    26   14   16 am
    27   16   31 1
    28   16   32 1
    29   17   21 1
    30   17   18 2
    31   18   19 1
    32   18   33 1
    33   19   20 2
    34   19   34 1
    35   20   21 1
    36   20   35 1
    37   21   22 1
@<TRIPOS>MOLECULE
CHEMBL211084
   53    56     0     0     0
SMALL
USER_CHARGES

@<TRIPOS>ATOM
      1 C1         -0.0184    1.5028    0.0103 C.3       1 <0>        -0.0800
      2 C2          0.0021   -0.0041    0.0020 C.2       1 <0>         0.1079
      3 C3          0.0083   -0.8581   -1.1820 C.ar      1 <0>        -0.1767
      4 C4         -0.0019   -0.6082   -2.5573 C.ar      1 <0>        -0.0099
      5 C5          0.0079   -1.6738   -3.4431 C.ar      1 <0>        -0.1039
      6 C6          0.0279   -2.9891   -2.9631 C.ar      1 <0>        -0.0528
      7 C7          0.0380   -3.2410   -1.6234 C.ar      1 <0>        -0.1371
      8 C8          0.0285   -2.1860   -0.7124 C.ar      1 <0>         0.1434
      9 N1          0.0337   -2.1193    0.6566 N.pl3     1 <0>        -0.5050
     10 H1          0.0468   -2.8812    1.2569 H         1 <0>         0.4441
     11 N2          0.0230   -0.7772    1.0497 N.2       1 <0>        -0.2444
     12 C9         -0.0034   -1.4202   -4.9053 C.ar      1 <0>        -0.0263
     13 C10         0.0004   -2.4846   -5.8096 C.ar      1 <0>        -0.1036
     14 C11        -0.0110   -2.1940   -7.1677 C.ar      1 <0>         0.0750
     15 C12        -0.0257   -0.8671   -7.5756 C.ar      1 <0>         0.0076
     16 N3         -0.0289    0.1132   -6.6940 N.ar      1 <0>        -0.4392
     17 C13        -0.0238   -0.1167   -5.3969 C.ar      1 <0>         0.0750
     18 O1         -0.0074   -3.1961   -8.0859 O.3       1 <0>        -0.3003
     19 C14        -0.0198   -2.8144   -9.4629 C.3       1 <0>         0.0432
     20 C15        -0.0136   -4.0682  -10.3397 C.3       1 <0>        -0.1475
     21 C16        -0.0269   -3.6595  -11.8141 C.3       1 <0>         0.0402
     22 H2         -0.8762   -3.0024  -12.0013 H         1 <0>         0.1490
     23 C17        -0.1464   -4.9092  -12.6887 C.3       1 <0>        -0.0969
     24 C18        -0.2830   -4.5005  -14.1328 C.ar      1 <0>        -0.1309
     25 C19        -1.5361   -4.2783  -14.6726 C.ar      1 <0>        -0.1045
     26 C20        -1.6614   -3.9034  -15.9972 C.ar      1 <0>        -0.1053
     27 C21        -0.5337   -3.7503  -16.7819 C.ar      1 <0>        -0.1027
     28 C22         0.7194   -3.9716  -16.2418 C.ar      1 <0>        -0.1075
     29 C23         0.8450   -4.3423  -14.9160 C.ar      1 <0>        -0.1416
     30 N4          1.2197   -2.9528  -12.1376 N.4       1 <0>        -0.6414
     31 H3          1.0042    1.8801    0.0026 H         1 <0>         0.0871
     32 H4         -0.5455    1.8639   -0.8728 H         1 <0>         0.0839
     33 H5         -0.5286    1.8543    0.9071 H         1 <0>         0.0838
     34 H6         -0.0177    0.4067   -2.9264 H         1 <0>         0.1360
     35 H7          0.0350   -3.8127   -3.6617 H         1 <0>         0.1332
     36 H8          0.0531   -4.2604   -1.2670 H         1 <0>         0.1333
     37 H9          0.0123   -3.5071   -5.4619 H         1 <0>         0.1481
     38 H10        -0.0343   -0.6345   -8.6302 H         1 <0>         0.1511
     39 H11        -0.0314    0.7142   -4.7071 H         1 <0>         0.1655
     40 H12        -0.9167   -2.2306   -9.6700 H         1 <0>         0.0806
     41 H13         0.8631   -2.2138   -9.6814 H         1 <0>         0.0562
     42 H14         0.8833   -4.6520  -10.1326 H         1 <0>         0.1048
     43 H15        -0.8966   -4.6688  -10.1212 H         1 <0>         0.1281
     44 H16         0.7456   -5.5239  -12.5679 H         1 <0>         0.1014
     45 H17        -1.0247   -5.4804  -12.3881 H         1 <0>         0.1238
     46 H18        -2.4171   -4.3980  -14.0596 H         1 <0>         0.1303
     47 H19        -2.6404   -3.7305  -16.4192 H         1 <0>         0.1330
     48 H20        -0.6316   -3.4580  -17.8170 H         1 <0>         0.1326
     49 H21         1.6005   -3.8522  -16.8549 H         1 <0>         0.1320
     50 H22         1.8242   -4.5116  -14.4930 H         1 <0>         0.1222
     51 H23         2.0058   -3.5611  -11.9642 H         1 <0>         0.4345
     52 H24         1.2109   -2.6833  -13.1099 H         1 <0>         0.4370
     53 H25         1.2985   -2.1287  -11.5608 H         1 <0>         0.4332
@<TRIPOS>BOND
     1    1    2 1
     2    1   31 1
     3    1   32 1
     4    1   33 1
     5    2   11 2
     6    2    3 1
     7    3    8 ar
     8    3    4 ar
     9    4    5 ar
    10    4   34 1
    11    5    6 ar
    12    5   12 1
    13    6    7 ar
    14    6   35 1
    15    7    8 ar
    16    7   36 1
    17    8    9 1
    18    9   10 1
    19    9   11 1
    20   12   17 ar
    21   12   13 ar
    22   13   14 ar
    23   13   37 1
    24   14   15 ar
    25   14   18 1
    26   15   16 ar
    27   15   38 1
    28   16   17 ar
    29   17   39 1
    30   18   19 1
    31   19   20 1
    32   19   40 1
    33   19   41 1
    34   20   21 1
    35   20   42 1
    36   20   43 1
    37   21   22 1
    38   21   23 1
    39   21   30 1
    40   23   24 1
    41   23   44 1
    42   23   45 1
    43   24   29 ar
    44   24   25 ar
    45   25   26 ar
    46   25   46 1
    47   26   27 ar
    48   26   47 1
    49   27   28 ar
    50   27   48 1
    51   28   29 ar
    52   28   49 1
    53   29   50 1
    54   30   51 1
    55   30   52 1
    56   30   53 1
@<TRIPOS>MOLECULE
CHEMBL270638
   51    55     0     0     0
SMALL
USER_CHARGES

@<TRIPOS>ATOM
      1 C1         -0.0184    1.5028    0.0103 C.3       1 <0>        -0.0792
      2 C2          0.0021   -0.0041    0.0020 C.2       1 <0>         0.2758
      3 N1          0.0077   -0.7464   -1.0677 N.2       1 <0>        -0.4554
      4 C3          0.0275   -2.0549   -0.7123 C.ar      1 <0>        -0.0084
      5 C4          0.0415   -3.2620   -1.4315 C.ar      1 <0>         0.2192
      6 N2          0.0603   -4.4188   -0.8203 N.ar      1 <0>        -0.4757
      7 C5          0.0676   -4.5239    0.5160 C.ar      1 <0>         0.1388
      8 C6          0.0884   -5.7871    1.1329 C.ar      1 <0>        -0.0798
      9 C7          0.0957   -5.8873    2.4872 C.ar      1 <0>        -0.0811
     10 C8          0.0826   -4.7364    3.2950 C.ar      1 <0>         0.0180
     11 C9          0.0625   -3.4748    2.7146 C.ar      1 <0>        -0.0779
     12 C10         0.0549   -3.3579    1.3215 C.ar      1 <0>        -0.0663
     13 C11         0.0342   -2.0963    0.6880 C.ar      1 <0>         0.0818
     14 N3          0.0233   -0.7933    1.1132 N.pl3     1 <0>        -0.4199
     15 C12         0.0296   -0.3539    2.4440 C.ar      1 <0>         0.1102
     16 C13         1.1322   -0.5974    3.2518 C.ar      1 <0>        -0.1035
     17 C14         1.1354   -0.1631    4.5629 C.ar      1 <0>        -0.0882
     18 C15         0.0418    0.5136    5.0712 C.ar      1 <0>        -0.0703
     19 C16        -1.0581    0.7571    4.2693 C.ar      1 <0>        -0.0890
     20 C17        -1.0646    0.3308    2.9556 C.ar      1 <0>        -0.1007
     21 C18         0.0485    0.9860    6.5022 C.3       1 <0>         0.0476
     22 C19        -1.1130    0.3381    7.2587 C.3       1 <0>        -0.1460
     23 C20        -0.0998    2.4501    6.5363 C.1       1 <0>         0.2043
     24 N4         -0.2142    3.5801    6.5625 N.1       1 <0>        -0.4168
     25 C21         0.0896   -4.8656    4.7212 C.1       1 <0>        -0.1013
     26 C22         0.0953   -4.9715    5.8904 C.1       1 <0>        -0.1119
     27 C23         0.1023   -5.1007    7.3165 C.ar      1 <0>        -0.0366
     28 C24         0.1279   -6.3667    7.9177 C.ar      1 <0>        -0.0516
     29 C25         0.1335   -6.4361    9.2990 C.ar      1 <0>        -0.1680
     30 C26         0.1140   -5.2654   10.0365 C.ar      1 <0>         0.1080
     31 N5          0.0896   -4.0869    9.4443 N.ar      1 <0>        -0.4795
     32 C27         0.0895   -3.9670    8.1329 C.ar      1 <0>         0.1258
     33 H1          1.0042    1.8801    0.0026 H         1 <0>         0.0921
     34 H2         -0.5455    1.8639   -0.8728 H         1 <0>         0.1025
     35 H3         -0.5286    1.8543    0.9071 H         1 <0>         0.0812
     36 H4          0.0364   -3.2343   -2.5111 H         1 <0>         0.1740
     37 H5          0.0983   -6.6813    0.5274 H         1 <0>         0.1474
     38 H6          0.1113   -6.8632    2.9496 H         1 <0>         0.1378
     39 H7          0.0521   -2.5907    3.3348 H         1 <0>         0.1334
     40 H8          1.9865   -1.1261    2.8554 H         1 <0>         0.1351
     41 H9          1.9926   -0.3525    5.1919 H         1 <0>         0.1435
     42 H10        -1.9110    1.2852    4.6693 H         1 <0>         0.1377
     43 H11        -1.9218    0.5259    2.3282 H         1 <0>         0.1362
     44 H12         0.9905    0.7052    6.9732 H         1 <0>         0.1278
     45 H13        -2.0550    0.6189    6.7877 H         1 <0>         0.0677
     46 H14        -1.0032   -0.7461    7.2335 H         1 <0>         0.0808
     47 H15        -1.1082    0.6798    8.2937 H         1 <0>         0.0757
     48 H16         0.1424   -7.2647    7.3178 H         1 <0>         0.1401
     49 H17         0.1527   -7.3943    9.7970 H         1 <0>         0.1432
     50 H18         0.1183   -5.3175   11.1152 H         1 <0>         0.1617
     51 H19         0.0742   -2.9845    7.6849 H         1 <0>         0.1598
@<TRIPOS>BOND
     1    1    2 1
     2    1   33 1
     3    1   34 1
     4    1   35 1
     5    2   14 1
     6    2    3 2
     7    3    4 1
     8    4   13 ar
     9    4    5 ar
    10    5    6 ar
    11    5   36 1
    12    6    7 ar
    13    7   12 ar
    14    7    8 ar
    15    8    9 ar
    16    8   37 1
    17    9   10 ar
    18    9   38 1
    19   10   11 ar
    20   10   25 1
    21   11   12 ar
    22   11   39 1
    23   12   13 ar
    24   13   14 1
    25   14   15 1
    26   15   20 ar
    27   15   16 ar
    28   16   17 ar
    29   16   40 1
    30   17   18 ar
    31   17   41 1
    32   18   19 ar
    33   18   21 1
    34   19   20 ar
    35   19   42 1
    36   20   43 1
    37   21   22 1
    38   21   23 1
    39   21   44 1
    40   22   45 1
    41   22   46 1
    42   22   47 1
    43   23   24 3
    44   25   26 3
    45   26   27 1
    46   27   32 ar
    47   27   28 ar
    48   28   29 ar
    49   28   48 1
    50   29   30 ar
    51   29   49 1
    52   30   31 ar
    53   30   50 1
    54   31   32 ar
    55   32   51 1
@<TRIPOS>MOLECULE
CHEMBL270638
   51    55     0     0     0
SMALL
USER_CHARGES

@<TRIPOS>ATOM
      1 C1         -0.0184    1.5028    0.0103 C.3       1 <0>        -0.0785
      2 C2          0.0021   -0.0041    0.0020 C.2       1 <0>         0.2753
      3 N1          0.0077   -0.7464   -1.0677 N.2       1 <0>        -0.4555
      4 C3          0.0275   -2.0549   -0.7123 C.ar      1 <0>        -0.0081
      5 C4          0.0415   -3.2620   -1.4315 C.ar      1 <0>         0.2187
      6 N2          0.0603   -4.4188   -0.8203 N.ar      1 <0>        -0.4753
      7 C5          0.0676   -4.5239    0.5160 C.ar      1 <0>         0.1386
      8 C6          0.0884   -5.7871    1.1329 C.ar      1 <0>        -0.0795
      9 C7          0.0957   -5.8873    2.4872 C.ar      1 <0>        -0.0809
     10 C8          0.0826   -4.7364    3.2950 C.ar      1 <0>         0.0195
     11 C9          0.0625   -3.4748    2.7146 C.ar      1 <0>        -0.0788
     12 C10         0.0549   -3.3579    1.3215 C.ar      1 <0>        -0.0661
     13 C11         0.0342   -2.0963    0.6880 C.ar      1 <0>         0.0816
     14 N3          0.0233   -0.7933    1.1132 N.pl3     1 <0>        -0.4200
     15 C12         0.0296   -0.3539    2.4440 C.ar      1 <0>         0.1102
     16 C13         1.1322   -0.5974    3.2518 C.ar      1 <0>        -0.1035
     17 C14         1.1354   -0.1631    4.5629 C.ar      1 <0>        -0.0885
     18 C15         0.0418    0.5136    5.0712 C.ar      1 <0>        -0.0701
     19 C16        -1.0581    0.7571    4.2693 C.ar      1 <0>        -0.0890
     20 C17        -1.0646    0.3308    2.9556 C.ar      1 <0>        -0.1008
     21 C18         0.0485    0.9860    6.5022 C.3       1 <0>         0.0477
     22 C19        -0.1056    2.5078    6.5376 C.3       1 <0>        -0.1452
     23 C20        -1.0690    0.3627    7.2300 C.1       1 <0>         0.1986
     24 N4         -1.9313   -0.1184    7.7916 N.1       1 <0>        -0.4102
     25 C21         0.0896   -4.8656    4.7212 C.1       1 <0>        -0.1041
     26 C22         0.0953   -4.9715    5.8904 C.1       1 <0>        -0.1100
     27 C23         0.1023   -5.1007    7.3165 C.ar      1 <0>        -0.0378
     28 C24         0.1279   -6.3667    7.9177 C.ar      1 <0>        -0.0510
     29 C25         0.1335   -6.4361    9.2990 C.ar      1 <0>        -0.1684
     30 C26         0.1140   -5.2654   10.0365 C.ar      1 <0>         0.1084
     31 N5          0.0896   -4.0869    9.4443 N.ar      1 <0>        -0.4787
     32 C27         0.0895   -3.9670    8.1329 C.ar      1 <0>         0.1293
     33 H1          1.0042    1.8801    0.0026 H         1 <0>         0.0924
     34 H2         -0.5455    1.8639   -0.8728 H         1 <0>         0.1020
     35 H3         -0.5286    1.8543    0.9071 H         1 <0>         0.0819
     36 H4          0.0364   -3.2343   -2.5111 H         1 <0>         0.1742
     37 H5          0.0983   -6.6813    0.5274 H         1 <0>         0.1478
     38 H6          0.1113   -6.8632    2.9496 H         1 <0>         0.1379
     39 H7          0.0521   -2.5907    3.3348 H         1 <0>         0.1321
     40 H8          1.9865   -1.1261    2.8554 H         1 <0>         0.1351
     41 H9          1.9926   -0.3525    5.1919 H         1 <0>         0.1433
     42 H10        -1.9110    1.2852    4.6693 H         1 <0>         0.1376
     43 H11        -1.9218    0.5259    2.3282 H         1 <0>         0.1361
     44 H12         0.9905    0.7052    6.9732 H         1 <0>         0.1271
     45 H13        -1.0477    2.7887    6.0666 H         1 <0>         0.0677
     46 H14        -0.1008    2.8496    7.5726 H         1 <0>         0.0740
     47 H15         0.7218    2.9694    5.9987 H         1 <0>         0.0820
     48 H16         0.1424   -7.2647    7.3178 H         1 <0>         0.1408
     49 H17         0.1527   -7.3943    9.7970 H         1 <0>         0.1440
     50 H18         0.1183   -5.3175   11.1152 H         1 <0>         0.1620
     51 H19         0.0742   -2.9845    7.6849 H         1 <0>         0.1544
@<TRIPOS>BOND
     1    1    2 1
     2    1   33 1
     3    1   34 1
     4    1   35 1
     5    2   14 1
     6    2    3 2
     7    3    4 1
     8    4   13 ar
     9    4    5 ar
    10    5    6 ar
    11    5   36 1
    12    6    7 ar
    13    7   12 ar
    14    7    8 ar
    15    8    9 ar
    16    8   37 1
    17    9   10 ar
    18    9   38 1
    19   10   11 ar
    20   10   25 1
    21   11   12 ar
    22   11   39 1
    23   12   13 ar
    24   13   14 1
    25   14   15 1
    26   15   20 ar
    27   15   16 ar
    28   16   17 ar
    29   16   40 1
    30   17   18 ar
    31   17   41 1
    32   18   19 ar
    33   18   21 1
    34   19   20 ar
    35   19   42 1
    36   20   43 1
    37   21   22 1
    38   21   23 1
    39   21   44 1
    40   22   45 1
    41   22   46 1
    42   22   47 1
    43   23   24 3
    44   25   26 3
    45   26   27 1
    46   27   32 ar
    47   27   28 ar
    48   28   29 ar
    49   28   48 1
    50   29   30 ar
    51   29   49 1
    52   30   31 ar
    53   30   50 1
    54   31   32 ar
    55   32   51 1
@<TRIPOS>MOLECULE
CHEMBL404554
   74    80     0     0     0
SMALL
USER_CHARGES

@<TRIPOS>ATOM
      1 C1         -0.0225    1.8097    0.0120 C.3       1 <0>        -0.1490
      2 S1          0.0021   -0.0041    0.0020 S.3       1 <0>         0.0304
      3 C2         -1.7016   -0.4536    0.0159 C.ar      1 <0>         0.3272
      4 N1         -2.6174    0.5141    0.0243 N.ar      1 <0>        -0.5277
      5 C3         -3.9053    0.2400    0.0344 C.ar      1 <0>         0.2400
      6 C4         -4.3044   -1.1092    0.0361 C.ar      1 <0>        -0.2288
      7 C5         -5.6573   -1.4815    0.0460 C.ar      1 <0>         0.0088
      8 C6         -5.9597   -2.8353    0.0465 C.ar      1 <0>        -0.1093
      9 C7         -4.9101   -3.7806    0.0372 C.ar      1 <0>         0.2471
     10 N2         -3.6450   -3.4035    0.0283 N.ar      1 <0>        -0.4556
     11 C8         -3.3020   -2.1154    0.0269 C.ar      1 <0>         0.3664
     12 N3         -2.0179   -1.7350    0.0120 N.ar      1 <0>        -0.4844
     13 C9         -5.2358   -5.2255    0.0378 C.ar      1 <0>        -0.0205
     14 C10        -6.3516   -5.6914    0.7329 C.ar      1 <0>        -0.0761
     15 C11        -6.6501   -7.0385    0.7294 C.ar      1 <0>        -0.1016
     16 C12        -5.8450   -7.9265    0.0386 C.ar      1 <0>        -0.1450
     17 C13        -4.7366   -7.4705   -0.6524 C.ar      1 <0>        -0.0973
     18 C14        -4.4313   -6.1249   -0.6615 C.ar      1 <0>        -0.0684
     19 C15        -6.1764   -9.3966    0.0392 C.3       1 <0>         0.0423
     20 N4         -7.0625   -9.6993   -1.0927 N.4       1 <0>        -0.3825
     21 C16        -8.3422   -9.0041   -0.9099 C.3       1 <0>        -0.0130
     22 C17        -9.2390   -9.2504   -2.1250 C.3       1 <0>        -0.1352
     23 C18        -9.4895  -10.7541   -2.2712 C.3       1 <0>        -0.0139
     24 C19        -8.1443  -11.4769   -2.3866 C.3       1 <0>        -0.1391
     25 C20        -7.2881  -11.1480   -1.1617 C.3       1 <0>        -0.0054
     26 C21       -10.3073  -11.0106   -3.5108 C.2       1 <0>         0.0683
     27 C22        -9.8028  -11.1568   -4.8028 C.2       1 <0>        -0.2433
     28 C23       -10.8583  -11.3762   -5.6425 C.2       1 <0>         0.1373
     29 N5        -11.9902  -11.3653   -4.8827 N.pl3     1 <0>        -0.4598
     30 H1        -12.8962  -11.4948   -5.2040 H         1 <0>         0.4454
     31 N6        -11.6093  -11.1390   -3.5538 N.2       1 <0>        -0.2625
     32 C24       -10.7862  -11.5858   -7.1050 C.ar      1 <0>         0.0015
     33 C25        -9.5562  -11.5793   -7.7726 C.ar      1 <0>        -0.1460
     34 C26        -9.5350  -11.7787   -9.1372 C.ar      1 <0>         0.1105
     35 N7        -10.6528  -11.9730   -9.8110 N.ar      1 <0>        -0.4741
     36 C27       -11.8328  -11.9866   -9.2207 C.ar      1 <0>         0.1140
     37 C28       -11.9455  -11.8018   -7.8586 C.ar      1 <0>        -0.1644
     38 C29        -7.3718   -3.2860    0.0573 C.ar      1 <0>        -0.0500
     39 C30        -7.8088   -4.2401   -0.8605 C.ar      1 <0>        -0.0995
     40 C31        -9.1245   -4.6562   -0.8454 C.ar      1 <0>        -0.1211
     41 C32       -10.0092   -4.1282    0.0777 C.ar      1 <0>        -0.1085
     42 C33        -9.5813   -3.1812    0.9908 C.ar      1 <0>        -0.1113
     43 C34        -8.2666   -2.7617    0.9890 C.ar      1 <0>        -0.1029
     44 H2          1.0001    2.1870    0.0043 H         1 <0>         0.1178
     45 H3         -0.5497    2.1708   -0.8711 H         1 <0>         0.0934
     46 H4         -0.5327    2.1613    0.9088 H         1 <0>         0.0934
     47 H5         -4.6386    1.0328    0.0415 H         1 <0>         0.1879
     48 H6         -6.4393   -0.7367    0.0534 H         1 <0>         0.1576
     49 H7         -6.9805   -4.9992    1.2732 H         1 <0>         0.1443
     50 H8         -7.5139   -7.4005    1.2673 H         1 <0>         0.1361
     51 H9         -4.1117   -8.1686   -1.1895 H         1 <0>         0.1372
     52 H10        -3.5683   -5.7695   -1.2049 H         1 <0>         0.1436
     53 H11        -5.2579   -9.9762   -0.0533 H         1 <0>         0.1397
     54 H12        -6.6772   -9.6558    0.9721 H         1 <0>         0.1376
     55 H13        -8.8347   -9.3802   -0.0132 H         1 <0>         0.1315
     56 H14        -8.1621   -7.9344   -0.8028 H         1 <0>         0.1353
     57 H15       -10.1894   -8.7349   -1.9866 H         1 <0>         0.1145
     58 H16        -8.7475   -8.8744   -3.0223 H         1 <0>         0.0923
     59 H17       -10.0265  -11.1209   -1.3965 H         1 <0>         0.1051
     60 H18        -8.3122  -12.5528   -2.4351 H         1 <0>         0.1174
     61 H19        -7.6301  -11.1471   -3.2893 H         1 <0>         0.0944
     62 H20        -6.3297  -11.6612   -1.2406 H         1 <0>         0.1354
     63 H21        -7.8031  -11.4785   -0.2597 H         1 <0>         0.1321
     64 H22        -8.7626  -11.1054   -5.0888 H         1 <0>         0.1527
     65 H23        -8.6375  -11.4202   -7.2276 H         1 <0>         0.1414
     66 H24        -8.5908  -11.7755   -9.6614 H         1 <0>         0.1656
     67 H25       -12.7221  -12.1489   -9.8116 H         1 <0>         0.1652
     68 H26       -12.9142  -11.8191   -7.3814 H         1 <0>         0.1337
     69 H27        -7.1192   -4.6525   -1.5821 H         1 <0>         0.1207
     70 H28        -9.4642   -5.3953   -1.5559 H         1 <0>         0.1229
     71 H29       -11.0381   -4.4564    0.0854 H         1 <0>         0.1265
     72 H30       -10.2765   -2.7723    1.7090 H         1 <0>         0.1304
     73 H31        -7.9325   -2.0256    1.7052 H         1 <0>         0.1283
     74 H32        -6.6312   -9.3859   -1.9493 H         1 <0>         0.4227
@<TRIPOS>BOND
     1    1    2 1
     2    1   44 1
     3    1   45 1
     4    1   46 1
     5    2    3 1
     6    3   12 ar
     7    3    4 ar
     8    4    5 ar
     9    5    6 ar
    10    5   47 1
    11    6   11 ar
    12    6    7 ar
    13    7    8 ar
    14    7   48 1
    15    8    9 ar
    16    8   38 1
    17    9   10 ar
    18    9   13 1
    19   10   11 ar
    20   11   12 ar
    21   13   18 ar
    22   13   14 ar
    23   14   15 ar
    24   14   49 1
    25   15   16 ar
    26   15   50 1
    27   16   17 ar
    28   16   19 1
    29   17   18 ar
    30   17   51 1
    31   18   52 1
    32   19   20 1
    33   19   53 1
    34   19   54 1
    35   20   25 1
    36   20   21 1
    37   20   74 1
    38   21   22 1
    39   21   55 1
    40   21   56 1
    41   22   23 1
    42   22   57 1
    43   22   58 1
    44   23   24 1
    45   23   26 1
    46   23   59 1
    47   24   25 1
    48   24   60 1
    49   24   61 1
    50   25   62 1
    51   25   63 1
    52   26   31 2
    53   26   27 1
    54   27   28 2
    55   27   64 1
    56   28   29 1
    57   28   32 1
    58   29   30 1
    59   29   31 1
    60   32   37 ar
    61   32   33 ar
    62   33   34 ar
    63   33   65 1
    64   34   35 ar
    65   34   66 1
    66   35   36 ar
    67   36   37 ar
    68   36   67 1
    69   37   68 1
    70   38   43 ar
    71   38   39 ar
    72   39   40 ar
    73   39   69 1
    74   40   41 ar
    75   40   70 1
    76   41   42 ar
    77   41   71 1
    78   42   43 ar
    79   42   72 1
    80   43   73 1
@<TRIPOS>MOLECULE
CHEMBL404554
   74    80     0     0     0
SMALL
USER_CHARGES

@<TRIPOS>ATOM
      1 C1         -0.0225    1.8097    0.0120 C.3       1 <0>        -0.1491
      2 S1          0.0021   -0.0041    0.0020 S.3       1 <0>         0.0312
      3 C2         -1.7016   -0.4536    0.0159 C.ar      1 <0>         0.3275
      4 N1         -2.6174    0.5141    0.0243 N.ar      1 <0>        -0.5273
      5 C3         -3.9053    0.2400    0.0344 C.ar      1 <0>         0.2403
      6 C4         -4.3044   -1.1092    0.0361 C.ar      1 <0>        -0.2288
      7 C5         -5.6573   -1.4815    0.0460 C.ar      1 <0>         0.0096
      8 C6         -5.9597   -2.8353    0.0465 C.ar      1 <0>        -0.1102
      9 C7         -4.9101   -3.7806    0.0372 C.ar      1 <0>         0.2460
     10 N2         -3.6450   -3.4035    0.0283 N.ar      1 <0>        -0.4554
     11 C8         -3.3020   -2.1154    0.0269 C.ar      1 <0>         0.3666
     12 N3         -2.0179   -1.7350    0.0120 N.ar      1 <0>        -0.4846
     13 C9         -5.2358   -5.2255    0.0378 C.ar      1 <0>        -0.0189
     14 C10        -6.3516   -5.6914    0.7329 C.ar      1 <0>        -0.0760
     15 C11        -6.6501   -7.0385    0.7294 C.ar      1 <0>        -0.1017
     16 C12        -5.8450   -7.9265    0.0386 C.ar      1 <0>        -0.1470
     17 C13        -4.7366   -7.4705   -0.6524 C.ar      1 <0>        -0.0973
     18 C14        -4.4313   -6.1249   -0.6615 C.ar      1 <0>        -0.0685
     19 C15        -6.1764   -9.3966    0.0392 C.3       1 <0>         0.0426
     20 N4         -7.0625   -9.6993   -1.0927 N.4       1 <0>        -0.3834
     21 C16        -8.3422   -9.0041   -0.9099 C.3       1 <0>        -0.0122
     22 C17        -9.2390   -9.2504   -2.1250 C.3       1 <0>        -0.1459
     23 C18        -9.4895  -10.7541   -2.2712 C.3       1 <0>        -0.0310
     24 C19        -8.1443  -11.4769   -2.3866 C.3       1 <0>        -0.1408
     25 C20        -7.2881  -11.1480   -1.1617 C.3       1 <0>        -0.0059
     26 C21       -10.3073  -11.0106   -3.5108 C.2       1 <0>         0.0760
     27 C22       -11.2475  -11.9692   -3.6575 C.2       1 <0>        -0.2309
     28 C23       -11.7692  -11.8662   -4.9620 C.2       1 <0>         0.1195
     29 N5        -11.1527  -10.8731   -5.5676 N.2       1 <0>        -0.2572
     30 H1         -9.6437   -9.5692   -4.8464 H         1 <0>         0.4378
     31 N6        -10.2330  -10.3187   -4.6682 N.pl3     1 <0>        -0.4664
     32 C24       -12.8265  -12.7254   -5.5496 C.ar      1 <0>         0.0172
     33 C25       -13.4145  -13.7512   -4.8043 C.ar      1 <0>        -0.1495
     34 C26       -14.3942  -14.5267   -5.3893 C.ar      1 <0>         0.1037
     35 N7        -14.7759  -14.3103   -6.6336 N.ar      1 <0>        -0.4761
     36 C27       -14.2465  -13.3530   -7.3710 C.ar      1 <0>         0.1047
     37 C28       -13.2655  -12.5273   -6.8617 C.ar      1 <0>        -0.1456
     38 C29        -7.3718   -3.2860    0.0573 C.ar      1 <0>        -0.0493
     39 C30        -7.8088   -4.2401   -0.8605 C.ar      1 <0>        -0.1002
     40 C31        -9.1245   -4.6562   -0.8454 C.ar      1 <0>        -0.1219
     41 C32       -10.0092   -4.1282    0.0777 C.ar      1 <0>        -0.1086
     42 C33        -9.5813   -3.1812    0.9908 C.ar      1 <0>        -0.1107
     43 C34        -8.2666   -2.7617    0.9890 C.ar      1 <0>        -0.1023
     44 H2          1.0001    2.1870    0.0043 H         1 <0>         0.1181
     45 H3         -0.5497    2.1708   -0.8711 H         1 <0>         0.0935
     46 H4         -0.5327    2.1613    0.9088 H         1 <0>         0.0936
     47 H5         -4.6386    1.0328    0.0415 H         1 <0>         0.1882
     48 H6         -6.4393   -0.7367    0.0534 H         1 <0>         0.1579
     49 H7         -6.9805   -4.9992    1.2732 H         1 <0>         0.1448
     50 H8         -7.5139   -7.4005    1.2673 H         1 <0>         0.1362
     51 H9         -4.1117   -8.1686   -1.1895 H         1 <0>         0.1369
     52 H10        -3.5683   -5.7695   -1.2049 H         1 <0>         0.1440
     53 H11        -5.2579   -9.9762   -0.0533 H         1 <0>         0.1403
     54 H12        -6.6772   -9.6558    0.9721 H         1 <0>         0.1387
     55 H13        -8.8347   -9.3802   -0.0132 H         1 <0>         0.1347
     56 H14        -8.1621   -7.9344   -0.8028 H         1 <0>         0.1372
     57 H15       -10.1894   -8.7349   -1.9866 H         1 <0>         0.1195
     58 H16        -8.7475   -8.8744   -3.0223 H         1 <0>         0.0845
     59 H17       -10.0265  -11.1209   -1.3965 H         1 <0>         0.1180
     60 H18        -8.3122  -12.5528   -2.4351 H         1 <0>         0.1216
     61 H19        -7.6301  -11.1471   -3.2893 H         1 <0>         0.0888
     62 H20        -6.3297  -11.6612   -1.2406 H         1 <0>         0.1364
     63 H21        -7.8031  -11.4785   -0.2597 H         1 <0>         0.1347
     64 H22       -11.5459  -12.6873   -2.9081 H         1 <0>         0.1559
     65 H23       -13.1063  -13.9343   -3.7855 H         1 <0>         0.1391
     66 H24       -14.8544  -15.3217   -4.8214 H         1 <0>         0.1630
     67 H25       -14.5887  -13.2110   -8.3855 H         1 <0>         0.1628
     68 H26       -12.8398  -11.7426   -7.4694 H         1 <0>         0.1415
     69 H27        -7.1192   -4.6525   -1.5821 H         1 <0>         0.1201
     70 H28        -9.4642   -5.3953   -1.5559 H         1 <0>         0.1215
     71 H29       -11.0381   -4.4564    0.0854 H         1 <0>         0.1266
     72 H30       -10.2765   -2.7723    1.7090 H         1 <0>         0.1309
     73 H31        -7.9325   -2.0256    1.7052 H         1 <0>         0.1288
     74 H32        -6.6312   -9.3859   -1.9493 H         1 <0>         0.4220
@<TRIPOS>BOND
     1    1    2 1
     2    1   44 1
     3    1   45 1
     4    1   46 1
     5    2    3 1
     6    3   12 ar
     7    3    4 ar
     8    4    5 ar
     9    5    6 ar
    10    5   47 1
    11    6   11 ar
    12    6    7 ar
    13    7    8 ar
    14    7   48 1
    15    8    9 ar
    16    8   38 1
    17    9   10 ar
    18    9   13 1
    19   10   11 ar
    20   11   12 ar
    21   13   18 ar
    22   13   14 ar
    23   14   15 ar
    24   14   49 1
    25   15   16 ar
    26   15   50 1
    27   16   17 ar
    28   16   19 1
    29   17   18 ar
    30   17   51 1
    31   18   52 1
    32   19   20 1
    33   19   53 1
    34   19   54 1
    35   20   25 1
    36   20   21 1
    37   20   74 1
    38   21   22 1
    39   21   55 1
    40   21   56 1
    41   22   23 1
    42   22   57 1
    43   22   58 1
    44   23   24 1
    45   23   59 1
    46   23   26 1
    47   24   25 1
    48   24   60 1
    49   24   61 1
    50   25   62 1
    51   25   63 1
    52   26   27 2
    53   26   31 1
    54   27   28 1
    55   27   64 1
    56   28   29 2
    57   28   32 1
    58   29   31 1
    59   30   31 1
    60   32   37 ar
    61   32   33 ar
    62   33   34 ar
    63   33   65 1
    64   34   35 ar
    65   34   66 1
    66   35   36 ar
    67   36   37 ar
    68   36   67 1
    69   37   68 1
    70   38   43 ar
    71   38   39 ar
    72   39   40 ar
    73   39   69 1
    74   40   41 ar
    75   40   70 1
    76   41   42 ar
    77   41   71 1
    78   42   43 ar
    79   42   72 1
    80   43   73 1
@<TRIPOS>MOLECULE
CHEMBL508794
   76    83     0     0     0
SMALL
USER_CHARGES

@<TRIPOS>ATOM
      1 C1         -0.0167    1.3792    0.0096 C.ar      1 <0>        -0.1080
      2 C2          1.1686    2.0925    0.0021 C.ar      1 <0>        -0.1111
      3 C3          2.3774    1.4272   -0.0134 C.ar      1 <0>        -0.0994
      4 C4          2.4027    0.0331   -0.0211 C.ar      1 <0>        -0.0529
      5 C5          1.2048   -0.6804   -0.0130 C.ar      1 <0>        -0.0986
      6 C6          0.0021   -0.0041    0.0020 C.ar      1 <0>        -0.1234
      7 C7          3.6976   -0.6874   -0.0382 C.ar      1 <0>        -0.0764
      8 C8          4.6816   -0.3456   -0.9640 C.ar      1 <0>        -0.0182
      9 C9          5.8813   -1.0546   -0.9365 C.ar      1 <0>        -0.0386
     10 C10         6.0622   -2.0855    0.0167 C.ar      1 <0>         0.1737
     11 C11         7.3354   -2.8135    0.0199 C.2       1 <0>        -0.1217
     12 C12         8.2918   -2.4981   -0.8626 C.2       1 <0>         0.0967
     13 N1          8.1356   -1.5027   -1.7936 N.pl3     1 <0>        -0.4442
     14 C13         6.9733   -0.7662   -1.8712 C.2       1 <0>         0.1866
     15 N2          7.1267    0.0981   -2.8487 N.2       1 <0>        -0.2331
     16 N3          8.2892   -0.0468   -3.3796 N.2       1 <0>        -0.3152
     17 C14         8.9478   -1.0090   -2.7751 C.2       1 <0>         0.4631
     18 N4         10.2306   -1.4436   -3.0773 N.pl3     1 <0>        -0.8183
     19 N5          5.0982   -2.3783    0.8804 N.ar      1 <0>        -0.4477
     20 C15         3.9494   -1.7206    0.8843 C.ar      1 <0>         0.1768
     21 C16         2.9075   -2.0824    1.8732 C.ar      1 <0>        -0.0051
     22 C17         2.0789   -1.0971    2.4095 C.ar      1 <0>        -0.0819
     23 C18         1.1099   -1.4404    3.3299 C.ar      1 <0>        -0.0999
     24 C19         0.9598   -2.7588    3.7213 C.ar      1 <0>        -0.1539
     25 C20         1.7788   -3.7407    3.1930 C.ar      1 <0>        -0.0959
     26 C21         2.7476   -3.4106    2.2675 C.ar      1 <0>        -0.0765
     27 C22        -0.0997   -3.1268    4.7278 C.3       1 <0>         0.0439
     28 N6         -1.3501   -3.4484    4.0270 N.4       1 <0>        -0.3849
     29 C23        -1.8500   -2.2483    3.3456 C.3       1 <0>        -0.0099
     30 C24        -3.1083   -2.5969    2.5478 C.3       1 <0>        -0.1570
     31 C25        -4.1811   -3.1276    3.5031 C.3       1 <0>         0.1308
     32 C26        -3.6225   -4.3344    4.2626 C.3       1 <0>        -0.1588
     33 C27        -2.3451   -3.9214    4.9969 C.3       1 <0>        -0.0015
     34 N7         -5.3615   -3.5346    2.7368 N.pl3     1 <0>        -0.4675
     35 C28        -6.6220   -3.0248    2.8618 C.2       1 <0>         0.0050
     36 C29        -7.4018   -3.6847    1.9650 C.2       1 <0>         0.0466
     37 N8         -6.6215   -4.5730    1.3156 N.2       1 <0>        -0.4621
     38 C30        -5.4026   -4.4836    1.7678 C.2       1 <0>         0.1852
     39 C31        -8.8508   -3.4670    1.7408 C.ar      1 <0>         0.1963
     40 C32        -9.5244   -4.2265    0.7852 C.ar      1 <0>        -0.1428
     41 C33       -10.8767   -4.0122    0.5877 C.ar      1 <0>        -0.0738
     42 C34       -11.5132   -3.0441    1.3528 C.ar      1 <0>        -0.1693
     43 C35       -10.7845   -2.3274    2.2827 C.ar      1 <0>         0.1041
     44 N9         -9.4976   -2.5546    2.4551 N.ar      1 <0>        -0.4837
     45 H1         -0.9603    1.9042    0.0260 H         1 <0>         0.1263
     46 H2          1.1477    3.1723    0.0081 H         1 <0>         0.1310
     47 H3          3.3021    1.9851   -0.0199 H         1 <0>         0.1300
     48 H4          1.2182   -1.7603   -0.0192 H         1 <0>         0.1202
     49 H5         -0.9264   -0.5557    0.0082 H         1 <0>         0.1216
     50 H6          4.5193    0.4450   -1.6816 H         1 <0>         0.1594
     51 H7          7.5019   -3.6050    0.7356 H         1 <0>         0.1703
     52 H8          9.2213   -3.0477   -0.8404 H         1 <0>         0.1720
     53 H9         10.6304   -2.1661   -2.5683 H         1 <0>         0.4129
     54 H10        10.7275   -1.0250   -3.7975 H         1 <0>         0.4324
     55 H11         2.1956   -0.0674    2.1052 H         1 <0>         0.1438
     56 H12         0.4676   -0.6783    3.7459 H         1 <0>         0.1343
     57 H13         1.6569   -4.7682    3.5024 H         1 <0>         0.1352
     58 H14         3.3833   -4.1786    1.8523 H         1 <0>         0.1422
     59 H15         0.2290   -3.9938    5.3008 H         1 <0>         0.1403
     60 H16        -0.2670   -2.2874    5.4026 H         1 <0>         0.1380
     61 H17        -2.0893   -1.4842    4.0852 H         1 <0>         0.1347
     62 H18        -1.0842   -1.8700    2.6684 H         1 <0>         0.1418
     63 H19        -3.4789   -1.7042    2.0440 H         1 <0>         0.1221
     64 H20        -2.8700   -3.3608    1.8076 H         1 <0>         0.0982
     65 H21        -4.4567   -2.3466    4.2118 H         1 <0>         0.1189
     66 H22        -4.3607   -4.6835    4.9846 H         1 <0>         0.1230
     67 H23        -3.3949   -5.1343    3.5581 H         1 <0>         0.0987
     68 H24        -1.9449   -4.7782    5.5389 H         1 <0>         0.1407
     69 H25        -2.5739   -3.1216    5.7013 H         1 <0>         0.1352
     70 H26        -6.9384   -2.2479    3.5421 H         1 <0>         0.1883
     71 H27        -4.5624   -5.0714    1.4287 H         1 <0>         0.2067
     72 H28        -8.9978   -4.9714    0.2071 H         1 <0>         0.1416
     73 H29       -11.4250   -4.5849   -0.1456 H         1 <0>         0.1391
     74 H30       -12.5681   -2.8528    1.2221 H         1 <0>         0.1390
     75 H31       -11.2768   -1.5735    2.8790 H         1 <0>         0.1609
     76 H32        -1.1760   -4.1718    3.3454 H         1 <0>         0.4238
@<TRIPOS>BOND
     1    1    6 ar
     2    1    2 ar
     3    1   45 1
     4    2    3 ar
     5    2   46 1
     6    3    4 ar
     7    3   47 1
     8    4    5 ar
     9    4    7 1
    10    5    6 ar
    11    5   48 1
    12    6   49 1
    13    7   20 ar
    14    7    8 ar
    15    8    9 ar
    16    8   50 1
    17    9   14 1
    18    9   10 ar
    19   10   11 1
    20   10   19 ar
    21   11   12 2
    22   11   51 1
    23   12   13 1
    24   12   52 1
    25   13   17 1
    26   13   14 1
    27   14   15 2
    28   15   16 1
    29   16   17 2
    30   17   18 1
    31   18   53 1
    32   18   54 1
    33   19   20 ar
    34   20   21 1
    35   21   26 ar
    36   21   22 ar
    37   22   23 ar
    38   22   55 1
    39   23   24 ar
    40   23   56 1
    41   24   25 ar
    42   24   27 1
    43   25   26 ar
    44   25   57 1
    45   26   58 1
    46   27   28 1
    47   27   59 1
    48   27   60 1
    49   28   33 1
    50   28   29 1
    51   28   76 1
    52   29   30 1
    53   29   61 1
    54   29   62 1
    55   30   31 1
    56   30   63 1
    57   30   64 1
    58   31   32 1
    59   31   34 1
    60   31   65 1
    61   32   33 1
    62   32   66 1
    63   32   67 1
    64   33   68 1
    65   33   69 1
    66   34   38 1
    67   34   35 1
    68   35   36 2
    69   35   70 1
    70   36   37 1
    71   36   39 1
    72   37   38 2
    73   38   71 1
    74   39   44 ar
    75   39   40 ar
    76   40   41 ar
    77   40   72 1
    78   41   42 ar
    79   41   73 1
    80   42   43 ar
    81   42   74 1
    82   43   44 ar
    83   43   75 1
@<TRIPOS>MOLECULE
CHEMBL209503
   63    69     0     0     0
SMALL
USER_CHARGES

@<TRIPOS>ATOM
      1 C1         -0.0165    1.3620    0.0095 C.ar      1 <0>        -0.1414
      2 C2          1.1697    2.0834    0.0021 C.ar      1 <0>        -0.0942
      3 C3          2.3856    1.4362   -0.0134 C.ar      1 <0>        -0.1333
      4 C4          2.4281    0.0456   -0.0212 C.ar      1 <0>         0.1024
      5 C5          1.2234   -0.6807   -0.0132 C.ar      1 <0>        -0.0832
      6 C6          0.0021   -0.0041    0.0020 C.ar      1 <0>        -0.0592
      7 C7          1.6036   -2.0953   -0.0245 C.2       1 <0>        -0.1663
      8 C8          2.9451   -2.1410   -0.0380 C.2       1 <0>         0.0450
      9 N1          3.4551   -0.8713   -0.0363 N.pl3     1 <0>        -0.5945
     10 H1          4.3995   -0.6501   -0.0442 H         1 <0>         0.4140
     11 C9          0.6664   -3.2754   -0.0210 C.3       1 <0>        -0.0600
     12 C10         0.2361   -3.5891   -1.4554 C.3       1 <0>         0.1661
     13 H2          1.1200   -3.7379   -2.0756 H         1 <0>         0.1000
     14 C11        -0.6144   -4.8610   -1.4661 C.3       1 <0>         0.0452
     15 O1         -1.7110   -4.7083   -0.5627 O.3       1 <0>        -0.3016
     16 C12        -2.5699   -5.7559   -0.4522 C.ar      1 <0>         0.0879
     17 C13        -3.6637   -5.6816    0.4011 C.ar      1 <0>        -0.0996
     18 C14        -4.5175   -6.7839    0.4793 C.ar      1 <0>        -0.0500
     19 C15        -4.2413   -7.9084   -0.2964 C.ar      1 <0>         0.0748
     20 N2         -3.1921   -7.9357   -1.0921 N.ar      1 <0>        -0.4415
     21 C16        -2.3684   -6.9109   -1.1949 C.ar      1 <0>         0.0192
     22 C17        -5.7002   -6.7585    1.3749 C.ar      1 <0>        -0.0464
     23 C18        -5.9808   -5.6312    2.1480 C.ar      1 <0>        -0.0664
     24 C19        -7.0710   -5.5952    2.9797 C.ar      1 <0>        -0.1127
     25 C20        -7.9428   -6.6938    3.0812 C.ar      1 <0>         0.1335
     26 C21        -7.6383   -7.8146    2.2927 C.ar      1 <0>        -0.1288
     27 C22        -6.5541   -7.8593    1.4539 C.ar      1 <0>        -0.0266
     28 S1         -8.9397   -8.9560    2.6928 S.3       1 <0>        -0.0273
     29 C23        -9.8153   -7.9282    3.8610 C.2       1 <0>         0.5397
     30 N3         -9.0744   -6.8030    3.8712 N.am      1 <0>        -0.6547
     31 O2        -10.8269   -8.1802    4.4892 O.2       1 <0>        -0.4407
     32 N4         -0.5497   -2.4718   -1.9849 N.pl3     1 <0>        -0.7312
     33 C24         0.0969   -1.3732   -2.5617 C.ar      1 <0>         0.2348
     34 C25         1.4845   -1.3334   -2.6431 C.ar      1 <0>        -0.1387
     35 C26         2.1334   -0.2616   -3.2066 C.ar      1 <0>        -0.0674
     36 C27         1.4147    0.8307   -3.7202 C.ar      1 <0>         0.0654
     37 C28         0.0170    0.7633   -3.6251 C.ar      1 <0>        -0.0712
     38 C29        -0.6381   -0.3073   -3.0674 C.ar      1 <0>        -0.1245
     39 S2         -0.5134    2.2892   -4.3641 S.3       1 <0>        -0.0491
     40 C30         1.0997    2.9430   -4.7616 C.2       1 <0>         0.5385
     41 N5          1.9244    1.9758   -4.3147 N.am      1 <0>        -0.6494
     42 O3          1.3830    3.9969   -5.3007 O.2       1 <0>        -0.4580
     43 H3         -0.9613    1.8849    0.0259 H         1 <0>         0.1165
     44 H4          1.1388    3.1630    0.0081 H         1 <0>         0.1181
     45 H5          3.3028    2.0064   -0.0198 H         1 <0>         0.1122
     46 H6         -0.9246   -0.5587    0.0082 H         1 <0>         0.1145
     47 H7          3.5346   -3.0459   -0.0490 H         1 <0>         0.1656
     48 H8          1.1742   -4.1414    0.4036 H         1 <0>         0.0775
     49 H9         -0.2127   -3.0396    0.5787 H         1 <0>         0.0841
     50 H10        -0.9944   -5.0354   -2.4727 H         1 <0>         0.0766
     51 H11        -0.0037   -5.7090   -1.1563 H         1 <0>         0.0827
     52 H12        -3.8486   -4.7946    0.9889 H         1 <0>         0.1470
     53 H13        -4.8945   -8.7669   -0.2442 H         1 <0>         0.1611
     54 H14        -1.5222   -6.9732   -1.8631 H         1 <0>         0.1592
     55 H15        -5.3283   -4.7725    2.0908 H         1 <0>         0.1413
     56 H16        -7.2626   -4.7090    3.5664 H         1 <0>         0.1382
     57 H17        -6.3603   -8.7415    0.8619 H         1 <0>         0.1456
     58 H18        -1.5182   -2.4936   -1.9356 H         1 <0>         0.4053
     59 H19         2.0625   -2.1596   -2.2561 H         1 <0>         0.1346
     60 H20         3.2123   -0.2586   -3.2551 H         1 <0>         0.1184
     61 H21        -1.7169   -0.3190   -3.0184 H         1 <0>         0.1314
     62 H22         2.8839    2.0812   -4.4095 H         1 <0>         0.4071
     63 H23        -9.3365   -6.0612    4.4386 H         1 <0>         0.4145
@<TRIPOS>BOND
     1    1    6 ar
     2    1    2 ar
     3    1   43 1
     4    2    3 ar
     5    2   44 1
     6    3    4 ar
     7    3   45 1
     8    4    9 1
     9    4    5 ar
    10    5    6 ar
    11    5    7 1
    12    6   46 1
    13    7    8 2
    14    7   11 1
    15    8    9 1
    16    8   47 1
    17    9   10 1
    18   11   12 1
    19   11   48 1
    20   11   49 1
    21   12   13 1
    22   12   14 1
    23   12   32 1
    24   14   15 1
    25   14   50 1
    26   14   51 1
    27   15   16 1
    28   16   21 ar
    29   16   17 ar
    30   17   18 ar
    31   17   52 1
    32   18   19 ar
    33   18   22 1
    34   19   20 ar
    35   19   53 1
    36   20   21 ar
    37   21   54 1
    38   22   27 ar
    39   22   23 ar
    40   23   24 ar
    41   23   55 1
    42   24   25 ar
    43   24   56 1
    44   25   30 1
    45   25   26 ar
    46   26   27 ar
    47   26   28 1
    48   27   57 1
    49   28   29 1
    50   29   30 am
    51   29   31 2
    52   30   63 1
    53   32   33 1
    54   32   58 1
    55   33   38 ar
    56   33   34 ar
    57   34   35 ar
    58   34   59 1
    59   35   36 ar
    60   35   60 1
    61   36   41 1
    62   36   37 ar
    63   37   38 ar
    64   37   39 1
    65   38   61 1
    66   39   40 1
    67   40   41 am
    68   40   42 2
    69   41   62 1
@<TRIPOS>MOLECULE
CHEMBL475401
   37    41     0     0     0
SMALL
USER_CHARGES

@<TRIPOS>ATOM
      1 C1         -0.0167    1.3822    0.0096 C.ar      1 <0>        -0.0961
      2 C2          1.1649    2.0982    0.0022 C.ar      1 <0>        -0.0949
      3 C3          2.3851    1.4405   -0.0138 C.ar      1 <0>        -0.0629
      4 C4          2.4205    0.0511   -0.0219 C.ar      1 <0>        -0.1238
      5 C5          1.2175   -0.6772   -0.0133 C.ar      1 <0>        -0.1245
      6 C6          0.0021   -0.0041    0.0020 C.ar      1 <0>        -0.0622
      7 C7          1.2733   -2.1523   -0.0200 C.2       1 <0>         0.4236
      8 O1          0.2436   -2.7968   -0.0134 O.2       1 <0>        -0.3945
      9 C8          2.5791   -2.8491   -0.0353 C.2       1 <0>        -0.1195
     10 C9          3.7245   -2.1614   -0.0454 C.2       1 <0>        -0.1269
     11 C10         3.7029   -0.6782   -0.0388 C.2       1 <0>         0.4222
     12 O2          4.7485   -0.0596   -0.0481 O.2       1 <0>        -0.3984
     13 C11         5.0765   -2.8289   -0.0660 C.3       1 <0>         0.0971
     14 H1          5.6314   -2.5497   -0.9617 H         1 <0>         0.1532
     15 C12         4.9583   -4.3596    0.0489 C.3       1 <0>         0.0682
     16 H2          5.8591   -4.8543   -0.3144 H         1 <0>         0.1581
     17 C13         4.8096   -4.5175    1.5827 C.3       1 <0>        -0.2308
     18 C14         5.6342   -3.3511    2.1031 C.2       1 <0>         0.4788
     19 O3          6.0870   -3.2590    3.2195 O.2       1 <0>        -0.4339
     20 O4          5.7858   -2.4287    1.1223 O.3       1 <0>        -0.3127
     21 O5          3.8067   -4.8340   -0.6286 O.3       1 <0>        -0.3242
     22 C15         2.5718   -4.3582   -0.0368 C.3       1 <0>         0.2095
     23 H3          2.4674   -4.7222    0.9853 H         1 <0>         0.1209
     24 C16         1.4166   -4.8544   -0.8677 C.2       1 <0>        -0.1694
     25 C17         0.1719   -5.2147   -0.4701 C.2       1 <0>        -0.0884
     26 C18        -0.7369   -5.6440   -1.4190 C.2       1 <0>        -0.1609
     27 C19        -0.3565   -5.6920   -2.7191 C.2       1 <0>        -0.1674
     28 S1          1.3300   -5.1126   -2.6320 S.3       1 <0>         0.0704
     29 H4         -0.9612    1.9058    0.0260 H         1 <0>         0.1412
     30 H5          1.1377    3.1778    0.0086 H         1 <0>         0.1415
     31 H6          3.3053    2.0059   -0.0204 H         1 <0>         0.1460
     32 H7         -0.9246   -0.5587    0.0083 H         1 <0>         0.1454
     33 H8          3.7666   -4.4220    1.8845 H         1 <0>         0.1231
     34 H9          5.2249   -5.4678    1.9182 H         1 <0>         0.1352
     35 H10        -0.1056   -5.1674    0.5726 H         1 <0>         0.1336
     36 H11        -1.7350   -5.9372   -1.1289 H         1 <0>         0.1361
     37 H12        -0.9268   -5.9976   -3.5838 H         1 <0>         0.1870
@<TRIPOS>BOND
     1    1    6 ar
     2    1    2 ar
     3    1   29 1
     4    2    3 ar
     5    2   30 1
     6    3    4 ar
     7    3   31 1
     8    4   11 1
     9    4    5 ar
    10    5    6 ar
    11    5    7 1
    12    6   32 1
    13    7    8 2
    14    7    9 1
    15    9   22 1
    16    9   10 2
    17   10   11 1
    18   10   13 1
    19   11   12 2
    20   13   14 1
    21   13   20 1
    22   13   15 1
    23   15   16 1
    24   15   17 1
    25   15   21 1
    26   17   18 1
    27   17   33 1
    28   17   34 1
    29   18   19 2
    30   18   20 1
    31   21   22 1
    32   22   23 1
    33   22   24 1
    34   24   28 1
    35   24   25 2
    36   25   26 1
    37   25   35 1
    38   26   27 2
    39   26   36 1
    40   27   28 1
    41   27   37 1
@<TRIPOS>MOLECULE
CHEMBL203275
   61    65     0     0     0
SMALL
USER_CHARGES

@<TRIPOS>ATOM
      1 C1          0.7850    0.9255    0.0963 C.ar      1 <0>        -0.1174
      2 C2          1.9880    1.6169    0.0502 C.ar      1 <0>        -0.0924
      3 C3          3.1840    0.9403   -0.0457 C.ar      1 <0>        -0.1095
      4 C4          3.1892   -0.4500   -0.0966 C.ar      1 <0>         0.0987
      5 C5          1.9677   -1.1459   -0.0491 C.ar      1 <0>        -0.1175
      6 C6          0.7669   -0.4398    0.0477 C.ar      1 <0>        -0.1163
      7 C7          2.3092   -2.5686   -0.1212 C.2       1 <0>        -0.2417
      8 C8          3.6467   -2.6473   -0.2038 C.2       1 <0>         0.1059
      9 N1          4.1896   -1.3914   -0.1905 N.pl3     1 <0>        -0.5834
     10 H1          5.1380   -1.1937   -0.2396 H         1 <0>         0.4275
     11 C9          1.3424   -3.7245   -0.1052 C.3       1 <0>        -0.0549
     12 C10         0.8331   -3.9831   -1.5246 C.3       1 <0>         0.0438
     13 H2          1.6809   -4.1347   -2.1928 H         1 <0>         0.1537
     14 C11        -0.0502   -5.2324   -1.5298 C.3       1 <0>         0.0249
     15 O1         -0.4308   -5.5410   -2.8721 O.3       1 <0>        -0.3204
     16 C12        -1.2227   -6.6306   -3.0539 C.ar      1 <0>         0.0680
     17 C13        -1.6298   -6.9982   -4.3294 C.ar      1 <0>        -0.0739
     18 C14        -2.4452   -8.1286   -4.4644 C.ar      1 <0>        -0.0952
     19 C15        -2.8139   -8.8365   -3.3171 C.ar      1 <0>         0.1017
     20 N2         -2.4026   -8.4491   -2.1281 N.ar      1 <0>        -0.4402
     21 C16        -1.6294   -7.3926   -1.9669 C.ar      1 <0>         0.0445
     22 C17        -2.9074   -8.5644   -5.7945 C.2       1 <0>        -0.0256
     23 C18        -3.6889   -9.6498   -5.9112 C.2       1 <0>        -0.1475
     24 C19        -4.1511  -10.0855   -7.2410 C.ar      1 <0>         0.1080
     25 C20        -3.7809   -9.3833   -8.3986 C.ar      1 <0>        -0.1828
     26 C21        -4.2330   -9.8226   -9.6228 C.ar      1 <0>         0.1592
     27 N3         -5.0058  -10.8890   -9.7202 N.ar      1 <0>        -0.5129
     28 C22        -5.3811  -11.5835   -8.6563 C.ar      1 <0>         0.4563
     29 C23        -4.9656  -11.2133   -7.3844 C.ar      1 <0>        -0.1984
     30 N4         -6.1959  -12.6990   -8.8158 N.pl3     1 <0>        -0.6694
     31 C24        -6.5631  -13.5102   -7.6525 C.3       1 <0>         0.0474
     32 C25        -6.3461  -15.0217   -7.7484 C.3       1 <0>        -0.1762
     33 C26        -7.7636  -14.4479   -7.7958 C.3       1 <0>        -0.1671
     34 N5          0.0498   -2.8276   -1.9819 N.4       1 <0>        -0.6366
     35 H3         -0.1437    1.4710    0.1758 H         1 <0>         0.1317
     36 H4          1.9860    2.6962    0.0896 H         1 <0>         0.1364
     37 H5          4.1145    1.4873   -0.0816 H         1 <0>         0.1306
     38 H6         -0.1727   -0.9710    0.0843 H         1 <0>         0.1139
     39 H7          4.2107   -3.5659   -0.2712 H         1 <0>         0.1789
     40 H8          1.8476   -4.6155    0.2675 H         1 <0>         0.1219
     41 H9          0.5008   -3.4853    0.5448 H         1 <0>         0.1003
     42 H10         0.5037   -6.0707   -1.1073 H         1 <0>         0.1161
     43 H11        -0.9429   -5.0486   -0.9321 H         1 <0>         0.0943
     44 H12        -1.3259   -6.4273   -5.1943 H         1 <0>         0.1529
     45 H13        -3.4427   -9.7100   -3.4069 H         1 <0>         0.1683
     46 H14        -1.3116   -7.1132   -0.9733 H         1 <0>         0.1646
     47 H15        -2.6175   -8.0106   -6.6751 H         1 <0>         0.1398
     48 H16        -3.9788  -10.2036   -5.0305 H         1 <0>         0.1482
     49 H17        -3.1499   -8.5095   -8.3300 H         1 <0>         0.1772
     50 H18        -3.9516   -9.2864  -10.5171 H         1 <0>         0.2085
     51 H19        -5.2699  -11.7842   -6.5196 H         1 <0>         0.1798
     52 H20        -6.5211  -12.9400   -9.6973 H         1 <0>         0.4213
     53 H21        -6.4052  -13.0393   -6.6823 H         1 <0>         0.1478
     54 H22        -5.9301  -15.4125   -8.6770 H         1 <0>         0.1069
     55 H23        -6.0452  -15.5455   -6.8411 H         1 <0>         0.1190
     56 H24        -8.3953  -14.5942   -6.9196 H         1 <0>         0.1216
     57 H25        -8.2802  -14.4612   -8.7555 H         1 <0>         0.1082
     58 H26        -0.7350   -2.6873   -1.3633 H         1 <0>         0.4305
     59 H27         0.6323   -2.0037   -1.9784 H         1 <0>         0.4405
     60 H28        -0.2861   -2.9981   -2.9179 H         1 <0>         0.4375
     61 H29        -5.3080  -11.1723  -10.5973 H         1 <0>         0.4429
@<TRIPOS>BOND
     1    1    6 ar
     2    1    2 ar
     3    1   35 1
     4    2    3 ar
     5    2   36 1
     6    3    4 ar
     7    3   37 1
     8    4    9 1
     9    4    5 ar
    10    5    6 ar
    11    5    7 1
    12    6   38 1
    13    7    8 2
    14    7   11 1
    15    8    9 1
    16    8   39 1
    17    9   10 1
    18   11   12 1
    19   11   40 1
    20   11   41 1
    21   12   13 1
    22   12   14 1
    23   12   34 1
    24   14   15 1
    25   14   42 1
    26   14   43 1
    27   15   16 1
    28   16   21 ar
    29   16   17 ar
    30   17   18 ar
    31   17   44 1
    32   18   19 ar
    33   18   22 1
    34   19   20 ar
    35   19   45 1
    36   20   21 ar
    37   21   46 1
    38   22   23 2
    39   22   47 1
    40   23   24 1
    41   23   48 1
    42   24   29 ar
    43   24   25 ar
    44   25   26 ar
    45   25   49 1
    46   26   27 ar
    47   26   50 1
    48   27   28 ar
    49   27   61 1
    50   28   29 ar
    51   28   30 1
    52   29   51 1
    53   30   31 1
    54   30   52 1
    55   31   33 1
    56   31   32 1
    57   31   53 1
    58   32   33 1
    59   32   54 1
    60   32   55 1
    61   33   56 1
    62   33   57 1
    63   34   58 1
    64   34   59 1
    65   34   60 1
@<TRIPOS>MOLECULE
CHEMBL203275
   60    64     0     0     0
SMALL
USER_CHARGES

@<TRIPOS>ATOM
      1 C1          0.0842    1.3137    0.0153 C.ar      1 <0>        -0.1190
      2 C2          1.2733    2.0302    0.0040 C.ar      1 <0>        -0.0931
      3 C3          2.4864    1.3780   -0.0190 C.ar      1 <0>        -0.1109
      4 C4          2.5231   -0.0127   -0.0305 C.ar      1 <0>         0.0986
      5 C5          1.3154   -0.7340   -0.0185 C.ar      1 <0>        -0.1171
      6 C6          0.0970   -0.0524    0.0042 C.ar      1 <0>        -0.1141
      7 C7          1.6896   -2.1502   -0.0352 C.2       1 <0>        -0.2379
      8 C8          3.0309   -2.2015   -0.0552 C.2       1 <0>         0.1041
      9 N1          3.5462   -0.9339   -0.0527 N.pl3     1 <0>        -0.5843
     10 H1          4.4914   -0.7166   -0.0646 H         1 <0>         0.4265
     11 C9          0.7476   -3.3265   -0.0302 C.3       1 <0>        -0.0554
     12 C10         0.3091   -3.6347   -1.4633 C.3       1 <0>         0.0436
     13 H2          1.1894   -3.7855   -2.0881 H         1 <0>         0.1529
     14 C11        -0.5467   -4.9029   -1.4731 C.3       1 <0>         0.0262
     15 O1         -0.8592   -5.2563   -2.8220 O.3       1 <0>        -0.3225
     16 C12        -1.6189   -6.3677   -3.0086 C.ar      1 <0>         0.0674
     17 C13        -1.9596   -6.7787   -4.2903 C.ar      1 <0>        -0.0911
     18 C14        -2.7442   -7.9302   -4.4300 C.ar      1 <0>        -0.0557
     19 C15        -3.1499   -8.6147   -3.2811 C.ar      1 <0>         0.0846
     20 N2         -2.8016   -8.1861   -2.0861 N.ar      1 <0>        -0.4401
     21 C16        -2.0588   -7.1088   -1.9201 C.ar      1 <0>         0.0215
     22 C17        -3.1360   -8.4120   -5.7668 C.2       1 <0>        -0.1107
     23 C18        -3.8884   -9.5172   -5.8880 C.2       1 <0>        -0.0772
     24 C19        -4.2802   -9.9990   -7.2246 C.ar      1 <0>         0.0159
     25 C20        -3.8724   -9.3204   -8.3836 C.ar      1 <0>        -0.2258
     26 C21        -4.2589   -9.8027   -9.6141 C.ar      1 <0>         0.1553
     27 N3         -5.0039  -10.8883   -9.7162 N.ar      1 <0>        -0.5416
     28 C22        -5.4127  -11.5618   -8.6512 C.ar      1 <0>         0.4107
     29 C23        -5.0635  -11.1481   -7.3728 C.ar      1 <0>        -0.2221
     30 N4         -6.1959  -12.6990   -8.8158 N.pl3     1 <0>        -0.6948
     31 C24        -6.5584  -13.5133   -7.6532 C.3       1 <0>         0.0821
     32 C25        -6.3409  -15.0245   -7.7537 C.3       1 <0>        -0.1943
     33 C26        -7.7589  -14.4513   -7.7944 C.3       1 <0>        -0.1849
     34 N5         -0.4766   -2.5097   -1.9876 N.4       1 <0>        -0.6362
     35 H3         -0.8584    1.8405    0.0374 H         1 <0>         0.1312
     36 H4          1.2470    3.1099    0.0129 H         1 <0>         0.1353
     37 H5          3.4060    1.9443   -0.0283 H         1 <0>         0.1295
     38 H6         -0.8320   -0.6031    0.0134 H         1 <0>         0.1148
     39 H7          3.6165   -3.1088   -0.0713 H         1 <0>         0.1792
     40 H8          1.2538   -4.1956    0.3898 H         1 <0>         0.1217
     41 H9         -0.1277   -3.0884    0.5743 H         1 <0>         0.0998
     42 H10         0.0047   -5.7170   -1.0027 H         1 <0>         0.1137
     43 H11        -1.4695   -4.7229   -0.9216 H         1 <0>         0.0918
     44 H12        -1.6286   -6.2248   -5.1564 H         1 <0>         0.1487
     45 H13        -3.7556   -9.5040   -3.3745 H         1 <0>         0.1666
     46 H14        -1.7926   -6.7955   -0.9214 H         1 <0>         0.1577
     47 H15        -2.8179   -7.8760   -6.6488 H         1 <0>         0.1345
     48 H16        -4.2066  -10.0533   -5.0061 H         1 <0>         0.1297
     49 H17        -3.2636   -8.4313   -8.3113 H         1 <0>         0.1332
     50 H18        -3.9483   -9.2849  -10.5095 H         1 <0>         0.1591
     51 H19        -5.3950  -11.7019   -6.5069 H         1 <0>         0.1359
     52 H20        -6.5021  -12.9531   -9.7005 H         1 <0>         0.4086
     53 H21        -6.3972  -13.0448   -6.6824 H         1 <0>         0.1314
     54 H22        -5.9281  -15.4127   -8.6848 H         1 <0>         0.0990
     55 H23        -6.0364  -15.5504   -6.8489 H         1 <0>         0.1042
     56 H24        -8.3873  -14.6001   -6.9163 H         1 <0>         0.1069
     57 H25        -8.2790  -14.4624   -8.7522 H         1 <0>         0.0998
     58 H26        -0.7658   -2.7130   -2.9327 H         1 <0>         0.4393
     59 H27        -1.2915   -2.3701   -1.4093 H         1 <0>         0.4299
     60 H28         0.0877   -1.6733   -1.9811 H         1 <0>         0.4382
@<TRIPOS>BOND
     1    1    6 ar
     2    1    2 ar
     3    1   35 1
     4    2    3 ar
     5    2   36 1
     6    3    4 ar
     7    3   37 1
     8    4    9 1
     9    4    5 ar
    10    5    6 ar
    11    5    7 1
    12    6   38 1
    13    7    8 2
    14    7   11 1
    15    8    9 1
    16    8   39 1
    17    9   10 1
    18   11   12 1
    19   11   40 1
    20   11   41 1
    21   12   13 1
    22   12   14 1
    23   12   34 1
    24   14   15 1
    25   14   42 1
    26   14   43 1
    27   15   16 1
    28   16   21 ar
    29   16   17 ar
    30   17   18 ar
    31   17   44 1
    32   18   19 ar
    33   18   22 1
    34   19   20 ar
    35   19   45 1
    36   20   21 ar
    37   21   46 1
    38   22   23 2
    39   22   47 1
    40   23   24 1
    41   23   48 1
    42   24   29 ar
    43   24   25 ar
    44   25   26 ar
    45   25   49 1
    46   26   27 ar
    47   26   50 1
    48   27   28 ar
    49   28   29 ar
    50   28   30 1
    51   29   51 1
    52   30   31 1
    53   30   52 1
    54   31   33 1
    55   31   32 1
    56   31   53 1
    57   32   33 1
    58   32   54 1
    59   32   55 1
    60   33   56 1
    61   33   57 1
    62   34   58 1
    63   34   59 1
    64   34   60 1
@<TRIPOS>MOLECULE
CHEMBL444165
   41    43     0     0     0
SMALL
USER_CHARGES

@<TRIPOS>ATOM
      1 C1         -0.0187    1.5258    0.0104 C.3       1 <0>        -0.1387
      2 C2          0.0021   -0.0041    0.0020 C.3       1 <0>        -0.1332
      3 C3         -1.4333   -0.5336    0.0129 C.3       1 <0>        -0.1263
      4 C4         -1.4126   -2.0635    0.0045 C.3       1 <0>         0.1326
      5 H1         -0.8256   -2.4101   -0.8460 H         1 <0>         0.1157
      6 C5         -2.8244   -2.5792   -0.1225 C.2       1 <0>        -0.1430
      7 C6         -3.4852   -3.0915    0.9221 C.2       1 <0>        -0.1075
      8 C7         -2.8521   -3.1918    2.2886 C.3       1 <0>        -0.1145
      9 C8         -1.6244   -2.2842    2.3656 C.3       1 <0>         0.1108
     10 H2         -1.9385   -1.2406    2.3776 H         1 <0>         0.0712
     11 O1         -0.8141   -2.5321    1.2110 O.3       1 <0>        -0.3343
     12 C9         -0.8285   -2.5986    3.6339 C.3       1 <0>        -0.1813
     13 C10         0.3103   -1.6207    3.7676 C.2       1 <0>         0.4955
     14 O2          0.4705   -0.7528    2.9264 O.co2     1 <0>        -0.6777
     15 O3          1.0714   -1.6975    4.7169 O.co2     1 <0>        -0.7094
     16 C11        -4.8727   -3.5827    0.7679 C.2       1 <0>         0.4230
     17 O4         -5.4627   -4.0399    1.7267 O.2       1 <0>        -0.4208
     18 C12        -5.5425   -3.5201   -0.5454 C.ar      1 <0>        -0.1050
     19 C13        -6.8429   -3.9789   -0.7101 C.ar      1 <0>        -0.0779
     20 C14        -7.4496   -3.9096   -1.9572 C.ar      1 <0>        -0.0842
     21 C15        -6.7721   -3.3886   -3.0383 C.ar      1 <0>        -0.1298
     22 C16        -5.4650   -2.9222   -2.8939 C.ar      1 <0>         0.1627
     23 C17        -4.8445   -2.9853   -1.6445 C.ar      1 <0>        -0.1521
     24 C18        -3.4678   -2.5022   -1.4543 C.2       1 <0>         0.4229
     25 O5         -2.8551   -2.0371   -2.3955 O.2       1 <0>        -0.4059
     26 O6         -4.8018   -2.4112   -3.9596 O.3       1 <0>        -0.4761
     27 H3          1.0039    1.9031    0.0027 H         1 <0>         0.0487
     28 H4         -0.5459    1.8868   -0.8726 H         1 <0>         0.0360
     29 H5         -0.5289    1.8773    0.9072 H         1 <0>         0.0518
     30 H6          0.5123   -0.3556   -0.8948 H         1 <0>         0.0452
     31 H7          0.5293   -0.3651    0.8851 H         1 <0>         0.1207
     32 H8         -1.9435   -0.1821    0.9097 H         1 <0>         0.0671
     33 H9         -1.9605   -0.1726   -0.8702 H         1 <0>         0.0582
     34 H10        -3.5751   -2.8870    3.0452 H         1 <0>         0.0934
     35 H11        -2.5515   -4.2231    2.4730 H         1 <0>         0.0943
     36 H12        -1.4818   -2.5165    4.5025 H         1 <0>         0.0721
     37 H13        -0.4319   -3.6120    3.5721 H         1 <0>         0.0665
     38 H14        -7.3819   -4.3889    0.1312 H         1 <0>         0.1458
     39 H15        -8.4610   -4.2675   -2.0811 H         1 <0>         0.1417
     40 H16        -7.2556   -3.3413   -4.0029 H         1 <0>         0.1427
     41 H17        -4.9178   -1.4581   -4.0750 H         1 <0>         0.3991
@<TRIPOS>BOND
     1    1    2 1
     2    1   27 1
     3    1   28 1
     4    1   29 1
     5    2    3 1
     6    2   30 1
     7    2   31 1
     8    3    4 1
     9    3   32 1
    10    3   33 1
    11    4    5 1
    12    4   11 1
    13    4    6 1
    14    6   24 1
    15    6    7 2
    16    7    8 1
    17    7   16 1
    18    8    9 1
    19    8   34 1
    20    8   35 1
    21    9   10 1
    22    9   11 1
    23    9   12 1
    24   12   13 1
    25   12   36 1
    26   12   37 1
    27   13   14 2
    28   13   15 1
    29   16   17 2
    30   16   18 1
    31   18   23 ar
    32   18   19 ar
    33   19   20 ar
    34   19   38 1
    35   20   21 ar
    36   20   39 1
    37   21   22 ar
    38   21   40 1
    39   22   23 ar
    40   22   26 1
    41   23   24 1
    42   24   25 2
    43   26   41 1
@<TRIPOS>MOLECULE
CHEMBL475400
   30    33     0     0     0
SMALL
USER_CHARGES

@<TRIPOS>ATOM
      1 C1         -0.0167    1.3822    0.0096 C.ar      1 <0>        -0.0966
      2 C2          1.1648    2.0983    0.0022 C.ar      1 <0>        -0.0936
      3 C3          2.3850    1.4407   -0.0126 C.ar      1 <0>        -0.0634
      4 C4          2.4204    0.0512   -0.0197 C.ar      1 <0>        -0.1211
      5 C5          1.2175   -0.6772   -0.0128 C.ar      1 <0>        -0.1280
      6 C6          0.0021   -0.0041    0.0020 C.ar      1 <0>        -0.0613
      7 C7          1.2737   -2.1521   -0.0218 C.2       1 <0>         0.4295
      8 O1          0.2438   -2.7964   -0.0188 O.2       1 <0>        -0.4111
      9 C8          2.5787   -2.8495   -0.0352 C.2       1 <0>        -0.1177
     10 C9          3.7258   -2.1606   -0.0398 C.2       1 <0>        -0.1141
     11 C10         3.7029   -0.6778   -0.0348 C.2       1 <0>         0.4236
     12 O2          4.7481   -0.0587   -0.0441 O.2       1 <0>        -0.4086
     13 C11         5.0680   -2.8337   -0.0467 C.3       1 <0>         0.0958
     14 H1          5.7076   -2.3799   -0.8037 H         1 <0>         0.1216
     15 C12         4.9529   -4.3504   -0.2956 C.3       1 <0>         0.0590
     16 H2          4.9442   -4.6020   -1.3561 H         1 <0>         0.1205
     17 C13         6.2247   -4.8633    0.4312 C.3       1 <0>        -0.1742
     18 C14         6.6097   -3.7187    1.3487 C.2       1 <0>         0.4829
     19 O3          7.5907   -3.6837    2.0533 O.2       1 <0>        -0.4362
     20 O4          5.6888   -2.7312    1.2463 O.3       1 <0>        -0.3224
     21 O5          3.8059   -4.8533    0.3934 O.3       1 <0>        -0.3532
     22 C15         2.5727   -4.3582   -0.0456 C.3       1 <0>         0.1007
     23 H3         -0.9612    1.9057    0.0260 H         1 <0>         0.1418
     24 H4          1.1375    3.1780    0.0076 H         1 <0>         0.1418
     25 H5          3.3052    2.0061   -0.0189 H         1 <0>         0.1461
     26 H6         -0.9246   -0.5587    0.0079 H         1 <0>         0.1464
     27 H7          5.9988   -5.7583    1.0109 H         1 <0>         0.1356
     28 H8          7.0207   -5.0624   -0.2862 H         1 <0>         0.1339
     29 H9          1.7669   -4.7215    0.5921 H         1 <0>         0.1361
     30 H10         2.4148   -4.7126   -1.0642 H         1 <0>         0.0863
@<TRIPOS>BOND
     1    1    6 ar
     2    1    2 ar
     3    1   23 1
     4    2    3 ar
     5    2   24 1
     6    3    4 ar
     7    3   25 1
     8    4   11 1
     9    4    5 ar
    10    5    6 ar
    11    5    7 1
    12    6   26 1
    13    7    8 2
    14    7    9 1
    15    9   22 1
    16    9   10 2
    17   10   11 1
    18   10   13 1
    19   11   12 2
    20   13   14 1
    21   13   20 1
    22   13   15 1
    23   15   16 1
    24   15   17 1
    25   15   21 1
    26   17   18 1
    27   17   27 1
    28   17   28 1
    29   18   19 2
    30   18   20 1
    31   21   22 1
    32   22   29 1
    33   22   30 1
@<TRIPOS>MOLECULE
CHEMBL252056
   56    60     0     0     0
SMALL
USER_CHARGES

@<TRIPOS>ATOM
      1 C1         -0.0225    1.8097    0.0120 C.3       1 <0>        -0.1465
      2 S1          0.0021   -0.0041    0.0020 S.3       1 <0>         0.0186
      3 C2          0.8484   -0.4107   -1.4889 C.ar      1 <0>         0.3225
      4 N1          1.2837    0.5796   -2.2667 N.ar      1 <0>        -0.5342
      5 C3          1.9229    0.3379   -3.3923 C.ar      1 <0>         0.2361
      6 C4          2.1419   -1.0009   -3.7658 C.ar      1 <0>        -0.2316
      7 C5          2.8151   -1.3392   -4.9495 C.ar      1 <0>        -0.0015
      8 C6          2.9869   -2.6849   -5.2387 C.ar      1 <0>        -0.1019
      9 C7          2.4852   -3.6562   -4.3441 C.ar      1 <0>         0.2699
     10 N2          1.8548   -3.3109   -3.2368 N.ar      1 <0>        -0.4628
     11 C8          1.6645   -2.0319   -2.9134 C.ar      1 <0>         0.3655
     12 N3          1.0298   -1.6838   -1.7865 N.ar      1 <0>        -0.4821
     13 C9          2.6699   -5.0924   -4.6553 C.ar      1 <0>        -0.0678
     14 C10         2.6327   -5.5326   -5.9783 C.ar      1 <0>        -0.0768
     15 C11         2.8060   -6.8718   -6.2619 C.ar      1 <0>        -0.1190
     16 C12         3.0157   -7.7773   -5.2372 C.ar      1 <0>        -0.0610
     17 C13         3.0532   -7.3469   -3.9229 C.ar      1 <0>        -0.1041
     18 C14         2.8875   -6.0093   -3.6271 C.ar      1 <0>        -0.0677
     19 C15         3.2037   -9.2386   -5.5539 C.3       1 <0>         0.0958
     20 N4          4.6315   -9.5150   -5.7612 N.3       1 <0>        -0.6816
     21 C16         4.8533  -10.9334   -6.0727 C.3       1 <0>         0.0652
     22 C17         6.3485  -11.1819   -6.2815 C.3       1 <0>        -0.0293
     23 C18         6.5761  -12.6369   -6.6010 C.2       1 <0>         0.0550
     24 N5          6.5987  -13.2183   -7.7743 N.2       1 <0>        -0.5183
     25 C19         6.8121  -14.5136   -7.8940 C.2       1 <0>         0.0331
     26 C20         7.0066  -15.2136   -6.7472 C.2       1 <0>        -0.2311
     27 S2          6.8701  -13.9076   -5.5372 S.3       1 <0>         0.1069
     28 C21         3.6902   -3.1001   -6.4757 C.ar      1 <0>        -0.0515
     29 C22         4.7183   -4.0397   -6.4143 C.ar      1 <0>        -0.0873
     30 C23         5.3692   -4.4227   -7.5693 C.ar      1 <0>        -0.1153
     31 C24         5.0036   -3.8759   -8.7863 C.ar      1 <0>        -0.1098
     32 C25         3.9842   -2.9431   -8.8533 C.ar      1 <0>        -0.1183
     33 C26         3.3223   -2.5567   -7.7057 C.ar      1 <0>        -0.1071
     34 H1          1.0001    2.1870    0.0043 H         1 <0>         0.0913
     35 H2         -0.5497    2.1708   -0.8711 H         1 <0>         0.0911
     36 H3         -0.5327    2.1613    0.9088 H         1 <0>         0.1142
     37 H4          2.2708    1.1489   -4.0150 H         1 <0>         0.1844
     38 H5          3.1879   -0.5750   -5.6154 H         1 <0>         0.1544
     39 H6          2.4684   -4.8268   -6.7790 H         1 <0>         0.1317
     40 H7          2.7774   -7.2139   -7.2859 H         1 <0>         0.1242
     41 H8          3.2169   -8.0585   -3.1272 H         1 <0>         0.1298
     42 H9          2.9213   -5.6738   -2.6011 H         1 <0>         0.1318
     43 H10         2.8338   -9.8407   -4.7239 H         1 <0>         0.0852
     44 H11         2.6501   -9.4884   -6.4590 H         1 <0>         0.0437
     45 H12         5.0135   -8.9223   -6.4828 H         1 <0>         0.3452
     46 H13         4.4949  -11.5472   -5.2464 H         1 <0>         0.0785
     47 H14         4.3112  -11.1949   -6.9814 H         1 <0>         0.0399
     48 H15         6.7070  -10.5680   -7.1078 H         1 <0>         0.0965
     49 H16         6.8907  -10.9203   -5.3727 H         1 <0>         0.1010
     50 H17         6.8310  -14.9959   -8.8601 H         1 <0>         0.1727
     51 H18         7.1952  -16.2676   -6.6060 H         1 <0>         0.1969
     52 H19         5.0050   -4.4667   -5.4647 H         1 <0>         0.1246
     53 H20         6.1658   -5.1505   -7.5230 H         1 <0>         0.1265
     54 H21         5.5163   -4.1781   -9.6875 H         1 <0>         0.1243
     55 H22         3.7033   -2.5193   -9.8062 H         1 <0>         0.1260
     56 H23         2.5236   -1.8318   -7.7599 H         1 <0>         0.1242
@<TRIPOS>BOND
     1    1    2 1
     2    1   34 1
     3    1   35 1
     4    1   36 1
     5    2    3 1
     6    3   12 ar
     7    3    4 ar
     8    4    5 ar
     9    5    6 ar
    10    5   37 1
    11    6   11 ar
    12    6    7 ar
    13    7    8 ar
    14    7   38 1
    15    8    9 ar
    16    8   28 1
    17    9   10 ar
    18    9   13 1
    19   10   11 ar
    20   11   12 ar
    21   13   18 ar
    22   13   14 ar
    23   14   15 ar
    24   14   39 1
    25   15   16 ar
    26   15   40 1
    27   16   17 ar
    28   16   19 1
    29   17   18 ar
    30   17   41 1
    31   18   42 1
    32   19   20 1
    33   19   43 1
    34   19   44 1
    35   20   21 1
    36   20   45 1
    37   21   22 1
    38   21   46 1
    39   21   47 1
    40   22   23 1
    41   22   48 1
    42   22   49 1
    43   23   27 1
    44   23   24 2
    45   24   25 1
    46   25   26 2
    47   25   50 1
    48   26   27 1
    49   26   51 1
    50   28   33 ar
    51   28   29 ar
    52   29   30 ar
    53   29   52 1
    54   30   31 ar
    55   30   53 1
    56   31   32 ar
    57   31   54 1
    58   32   33 ar
    59   32   55 1
    60   33   56 1
@<TRIPOS>MOLECULE
CHEMBL252056
   57    61     0     0     0
SMALL
USER_CHARGES

@<TRIPOS>ATOM
      1 C1         -0.0225    1.8097    0.0120 C.3       1 <0>        -0.1490
      2 S1          0.0021   -0.0041    0.0020 S.3       1 <0>         0.0305
      3 C2          0.8767   -0.4266    1.4721 C.ar      1 <0>         0.3272
      4 N1          1.3174    0.5551    2.2576 N.ar      1 <0>        -0.5276
      5 C3          1.9766    0.3014    3.3689 C.ar      1 <0>         0.2402
      6 C4          2.2114   -1.0411    3.7185 C.ar      1 <0>        -0.2284
      7 C5          2.9053   -1.3920    4.8864 C.ar      1 <0>         0.0090
      8 C6          3.0909   -2.7406    5.1528 C.ar      1 <0>        -0.1086
      9 C7          2.5820   -3.7021    4.2518 C.ar      1 <0>         0.2457
     10 N2          1.9327   -3.3451    3.1593 N.ar      1 <0>        -0.4554
     11 C8          1.7278   -2.0628    2.8584 C.ar      1 <0>         0.3662
     12 N3          1.0636   -1.7028    1.7525 N.ar      1 <0>        -0.4845
     13 C9          2.7816   -5.1415    4.5386 C.ar      1 <0>        -0.0172
     14 C10         3.9528   -5.5760    5.1591 C.ar      1 <0>        -0.0773
     15 C11         4.1327   -6.9181    5.4241 C.ar      1 <0>        -0.0955
     16 C12         3.1545   -7.8322    5.0753 C.ar      1 <0>        -0.1532
     17 C13         1.9909   -7.4074    4.4592 C.ar      1 <0>        -0.0960
     18 C14         1.7967   -6.0672    4.1946 C.ar      1 <0>        -0.0705
     19 C15         3.3576   -9.2966    5.3671 C.3       1 <0>         0.0457
     20 N4          2.8280   -9.6080    6.7015 N.4       1 <0>        -0.5077
     21 C16         3.0259  -11.0356    6.9860 C.3       1 <0>        -0.0058
     22 C17         2.4742  -11.3599    8.3757 C.3       1 <0>        -0.0485
     23 C18         2.6773  -12.8244    8.6675 C.2       1 <0>         0.0041
     24 N5          3.7006  -13.4051    9.2428 N.2       1 <0>        -0.4959
     25 C19         3.7329  -14.7094    9.4303 C.2       1 <0>         0.0282
     26 C20         2.6587  -15.4196    9.0002 C.2       1 <0>        -0.1968
     27 S2          1.6409  -14.1094    8.3399 S.3       1 <0>         0.1342
     28 C21         3.8172   -3.1690    6.3720 C.ar      1 <0>        -0.0511
     29 C22         3.2649   -4.1343    7.2126 C.ar      1 <0>        -0.0999
     30 C23         3.9459   -4.5295    8.3460 C.ar      1 <0>        -0.1201
     31 C24         5.1740   -3.9694    8.6488 C.ar      1 <0>        -0.1087
     32 C25         5.7270   -3.0112    7.8184 C.ar      1 <0>        -0.1115
     33 C26         5.0579   -2.6123    6.6792 C.ar      1 <0>        -0.1032
     34 H1          1.0001    2.1870    0.0043 H         1 <0>         0.0934
     35 H2         -0.5497    2.1708   -0.8711 H         1 <0>         0.1179
     36 H3         -0.5327    2.1613    0.9088 H         1 <0>         0.0934
     37 H4          2.3293    1.1056    3.9977 H         1 <0>         0.1882
     38 H5          3.2838   -0.6351    5.5574 H         1 <0>         0.1579
     39 H6          4.7174   -4.8634    5.4312 H         1 <0>         0.1447
     40 H7          5.0391   -7.2558    5.9044 H         1 <0>         0.1368
     41 H8          1.2311   -8.1257    4.1890 H         1 <0>         0.1376
     42 H9          0.8860   -5.7362    3.7177 H         1 <0>         0.1440
     43 H10         2.8331   -9.8921    4.6199 H         1 <0>         0.1412
     44 H11         4.4220   -9.5292    5.3353 H         1 <0>         0.1408
     45 H12         3.3135   -9.0567    7.3931 H         1 <0>         0.4299
     46 H13         2.5014  -11.6311    6.2388 H         1 <0>         0.1372
     47 H14         4.0903  -11.2682    6.9542 H         1 <0>         0.1405
     48 H15         2.9988  -10.7644    9.1229 H         1 <0>         0.1183
     49 H16         1.4098  -11.1273    8.4075 H         1 <0>         0.1121
     50 H17         4.5754  -15.1911    9.9040 H         1 <0>         0.1822
     51 H18         2.4703  -16.4820    9.0478 H         1 <0>         0.2059
     52 H19         2.3059   -4.5717    6.9776 H         1 <0>         0.1207
     53 H20         3.5191   -5.2772    8.9980 H         1 <0>         0.1237
     54 H21         5.7030   -4.2813    9.5372 H         1 <0>         0.1270
     55 H22         6.6860   -2.5771    8.0600 H         1 <0>         0.1306
     56 H23         5.4926   -1.8673    6.0293 H         1 <0>         0.1284
     57 H24         1.8426   -9.3927    6.7309 H         1 <0>         0.4291
@<TRIPOS>BOND
     1    1    2 1
     2    1   34 1
     3    1   35 1
     4    1   36 1
     5    2    3 1
     6    3   12 ar
     7    3    4 ar
     8    4    5 ar
     9    5    6 ar
    10    5   37 1
    11    6   11 ar
    12    6    7 ar
    13    7    8 ar
    14    7   38 1
    15    8    9 ar
    16    8   28 1
    17    9   10 ar
    18    9   13 1
    19   10   11 ar
    20   11   12 ar
    21   13   18 ar
    22   13   14 ar
    23   14   15 ar
    24   14   39 1
    25   15   16 ar
    26   15   40 1
    27   16   17 ar
    28   16   19 1
    29   17   18 ar
    30   17   41 1
    31   18   42 1
    32   19   20 1
    33   19   43 1
    34   19   44 1
    35   20   21 1
    36   20   45 1
    37   20   57 1
    38   21   22 1
    39   21   46 1
    40   21   47 1
    41   22   23 1
    42   22   48 1
    43   22   49 1
    44   23   27 1
    45   23   24 2
    46   24   25 1
    47   25   26 2
    48   25   50 1
    49   26   27 1
    50   26   51 1
    51   28   33 ar
    52   28   29 ar
    53   29   30 ar
    54   29   52 1
    55   30   31 ar
    56   30   53 1
    57   31   32 ar
    58   31   54 1
    59   32   33 ar
    60   32   55 1
    61   33   56 1
@<TRIPOS>MOLECULE
CHEMBL206208
   49    52     0     0     0
SMALL
USER_CHARGES

@<TRIPOS>ATOM
      1 C1         -0.0165    1.3620    0.0095 C.ar      1 <0>        -0.1189
      2 C2          1.1697    2.0834    0.0021 C.ar      1 <0>        -0.0931
      3 C3          2.3856    1.4362   -0.0134 C.ar      1 <0>        -0.1108
      4 C4          2.4281    0.0456   -0.0212 C.ar      1 <0>         0.0986
      5 C5          1.2234   -0.6807   -0.0132 C.ar      1 <0>        -0.1172
      6 C6          0.0021   -0.0041    0.0020 C.ar      1 <0>        -0.1143
      7 C7          1.6036   -2.0953   -0.0245 C.2       1 <0>        -0.2383
      8 C8          2.9451   -2.1410   -0.0380 C.2       1 <0>         0.1043
      9 N1          3.4551   -0.8713   -0.0363 N.pl3     1 <0>        -0.5843
     10 H1          4.3995   -0.6501   -0.0442 H         1 <0>         0.4266
     11 C9          0.6664   -3.2754   -0.0210 C.3       1 <0>        -0.0553
     12 C10         0.2361   -3.5891   -1.4554 C.3       1 <0>         0.0434
     13 H2          1.1200   -3.7379   -2.0756 H         1 <0>         0.1533
     14 C11        -0.6144   -4.8610   -1.4661 C.3       1 <0>         0.0253
     15 O1         -0.9189   -5.2190   -2.8156 O.3       1 <0>        -0.3210
     16 C12        -1.6731   -6.3341   -3.0030 C.ar      1 <0>         0.0669
     17 C13        -2.0060   -6.7496   -4.2851 C.ar      1 <0>        -0.0766
     18 C14        -2.7851   -7.9048   -4.4257 C.ar      1 <0>         0.0158
     19 C15        -3.1934   -8.5882   -3.2770 C.ar      1 <0>         0.1090
     20 N2         -2.8529   -8.1548   -2.0815 N.ar      1 <0>        -0.4389
     21 C16        -2.1151   -7.0742   -1.9146 C.ar      1 <0>         0.0344
     22 C17        -3.1576   -8.3778   -5.7250 C.1       1 <0>        -0.1224
     23 C18        -3.4630   -8.7656   -6.7902 C.1       1 <0>        -0.0737
     24 C19        -3.8356   -9.2386   -8.0895 C.ar      1 <0>         0.0442
     25 C20        -3.4261   -8.5627   -9.2473 C.ar      1 <0>        -0.1446
     26 C21        -3.8077   -9.0542  -10.4776 C.ar      1 <0>         0.1075
     27 N3         -4.5473  -10.1430  -10.5732 N.ar      1 <0>        -0.4738
     28 C22        -4.9545  -10.8098   -9.5097 C.ar      1 <0>         0.1062
     29 C23        -4.6152  -10.3938   -8.2398 C.ar      1 <0>        -0.1467
     30 N4         -0.5518   -2.4687   -1.9863 N.4       1 <0>        -0.6364
     31 H3         -0.9613    1.8849    0.0259 H         1 <0>         0.1313
     32 H4          1.1388    3.1630    0.0081 H         1 <0>         0.1354
     33 H5          3.3028    2.0064   -0.0198 H         1 <0>         0.1296
     34 H6         -0.9246   -0.5587    0.0082 H         1 <0>         0.1148
     35 H7          3.5346   -3.0459   -0.0490 H         1 <0>         0.1792
     36 H8          1.1742   -4.1414    0.4036 H         1 <0>         0.1220
     37 H9         -0.2127   -3.0396    0.5787 H         1 <0>         0.1001
     38 H10        -0.0618   -5.6715   -0.9910 H         1 <0>         0.1152
     39 H11        -1.5405   -4.6834   -0.9195 H         1 <0>         0.0933
     40 H12        -1.6732   -6.1966   -5.1511 H         1 <0>         0.1512
     41 H13        -3.7946   -9.4804   -3.3710 H         1 <0>         0.1722
     42 H14        -1.8550   -6.7573   -0.9155 H         1 <0>         0.1627
     43 H15        -2.8213   -7.6707   -9.1767 H         1 <0>         0.1433
     44 H16        -3.4973   -8.5407  -11.3756 H         1 <0>         0.1666
     45 H17        -5.5586  -11.6961   -9.6360 H         1 <0>         0.1654
     46 H18        -4.9482  -10.9471   -7.3742 H         1 <0>         0.1406
     47 H19        -0.8356   -2.6756   -2.9322 H         1 <0>         0.4392
     48 H20        -1.3700   -2.3311   -1.4122 H         1 <0>         0.4301
     49 H21         0.0090   -1.6300   -1.9793 H         1 <0>         0.4385
@<TRIPOS>BOND
     1    1    6 ar
     2    1    2 ar
     3    1   31 1
     4    2    3 ar
     5    2   32 1
     6    3    4 ar
     7    3   33 1
     8    4    9 1
     9    4    5 ar
    10    5    6 ar
    11    5    7 1
    12    6   34 1
    13    7    8 2
    14    7   11 1
    15    8    9 1
    16    8   35 1
    17    9   10 1
    18   11   12 1
    19   11   36 1
    20   11   37 1
    21   12   13 1
    22   12   14 1
    23   12   30 1
    24   14   15 1
    25   14   38 1
    26   14   39 1
    27   15   16 1
    28   16   21 ar
    29   16   17 ar
    30   17   18 ar
    31   17   40 1
    32   18   19 ar
    33   18   22 1
    34   19   20 ar
    35   19   41 1
    36   20   21 ar
    37   21   42 1
    38   22   23 3
    39   23   24 1
    40   24   29 ar
    41   24   25 ar
    42   25   26 ar
    43   25   43 1
    44   26   27 ar
    45   26   44 1
    46   27   28 ar
    47   28   29 ar
    48   28   45 1
    49   29   46 1
    50   30   47 1
    51   30   48 1
    52   30   49 1
@<TRIPOS>MOLECULE
CHEMBL1081437
   54    58     0     0     0
SMALL
USER_CHARGES

@<TRIPOS>ATOM
      1 C1         -0.0167    1.3781    0.0096 C.ar      1 <0>        -0.1412
      2 C2          1.1709    2.0855    0.0021 C.ar      1 <0>        -0.0583
      3 C3          2.3773    1.4107   -0.0130 C.ar      1 <0>        -0.1628
      4 C4          2.3960    0.0285   -0.0201 C.ar      1 <0>        -0.0560
      5 C5          1.2085   -0.6789   -0.0117 C.ar      1 <0>        -0.1021
      6 C6          0.0021   -0.0041    0.0020 C.ar      1 <0>        -0.0987
      7 C7         -1.2926   -0.7753    0.0107 C.3       1 <0>        -0.0999
      8 C8         -1.7450   -1.0285   -1.4288 C.3       1 <0>         0.0251
      9 H1         -0.9463   -1.5264   -1.9784 H         1 <0>         0.1565
     10 C9         -2.9907   -1.9168   -1.4231 C.3       1 <0>         0.1104
     11 N1         -3.4936   -2.0615   -2.7914 N.pl3     1 <0>        -0.6955
     12 C10        -4.6223   -2.8271   -3.0375 C.2       1 <0>         0.2885
     13 N2         -5.3954   -3.5020   -2.1956 N.2       1 <0>        -0.3209
     14 N3         -6.3989   -4.1559   -2.5909 N.2       1 <0>        -0.2548
     15 C11        -6.7417   -4.2085   -3.8713 C.2       1 <0>         0.1340
     16 S1         -5.4580   -3.1816   -4.5808 S.3       1 <0>        -0.0106
     17 C12        -7.8663   -4.9107   -4.5255 C.ar      1 <0>        -0.0719
     18 C13        -8.0295   -4.8268   -5.9158 C.ar      1 <0>        -0.0427
     19 C14        -9.0605   -5.4679   -6.5347 C.ar      1 <0>        -0.1336
     20 C15        -9.9689   -6.2178   -5.7887 C.ar      1 <0>         0.1543
     21 C16        -9.8174   -6.3109   -4.3913 C.ar      1 <0>        -0.1742
     22 C17        -8.7548   -5.6560   -3.7626 C.ar      1 <0>         0.0311
     23 C18       -10.9109   -7.1531   -3.9151 C.2       1 <0>         0.1483
     24 N4        -11.6195   -7.5064   -4.9491 N.2       1 <0>        -0.2415
     25 N5        -11.0773   -6.9556   -6.1145 N.pl3     1 <0>        -0.4997
     26 H2        -11.4293   -7.0763   -7.0103 H         1 <0>         0.4462
     27 C19       -11.1725   -7.5441   -2.4834 C.3       1 <0>        -0.0968
     28 C20       -12.2525   -8.5965   -2.2245 C.3       1 <0>        -0.1599
     29 C21       -12.5125   -7.1306   -1.8718 C.3       1 <0>        -0.1570
     30 N6         -2.0599    0.2523   -2.0756 N.4       1 <0>        -0.6406
     31 C22         3.6720    2.1819   -0.0222 C.3       1 <0>         0.5036
     32 F1          4.0857    2.4144    1.2938 F         1 <0>        -0.1688
     33 F2          4.6506    1.4423   -0.6949 F         1 <0>        -0.1715
     34 F3          3.4816    3.4050   -0.6742 F         1 <0>        -0.1729
     35 H3         -0.9591    1.9053    0.0259 H         1 <0>         0.1373
     36 H4          1.1563    3.1654    0.0076 H         1 <0>         0.1471
     37 H5          3.3385   -0.4987   -0.0326 H         1 <0>         0.1479
     38 H6          1.2231   -1.7588   -0.0179 H         1 <0>         0.1454
     39 H7         -1.1443   -1.7285    0.5180 H         1 <0>         0.1339
     40 H8         -2.0551   -0.1993    0.5352 H         1 <0>         0.1114
     41 H9         -2.7351   -2.8985   -1.0242 H         1 <0>         0.1214
     42 H10        -3.7596   -1.4603   -0.7997 H         1 <0>         0.1043
     43 H11        -3.0366   -1.6214   -3.5252 H         1 <0>         0.4121
     44 H12        -7.3311   -4.2480   -6.5019 H         1 <0>         0.1328
     45 H13        -9.1745   -5.3945   -7.6062 H         1 <0>         0.1396
     46 H14        -8.6286   -5.7256   -2.6922 H         1 <0>         0.1455
     47 H15       -10.3002   -7.5463   -1.8298 H         1 <0>         0.1313
     48 H16       -12.7738   -9.0060   -3.0897 H         1 <0>         0.1047
     49 H17       -12.0907   -9.2914   -1.4005 H         1 <0>         0.1055
     50 H18       -12.5219   -6.8611   -0.8156 H         1 <0>         0.1067
     51 H19       -13.2050   -6.5758   -2.5049 H         1 <0>         0.0981
     52 H20        -2.7994    0.7132   -1.5668 H         1 <0>         0.4382
     53 H21        -1.2384    0.8381   -2.0794 H         1 <0>         0.4385
     54 H22        -2.3583    0.0853   -3.0249 H         1 <0>         0.4322
@<TRIPOS>BOND
     1    1    6 ar
     2    1    2 ar
     3    1   35 1
     4    2    3 ar
     5    2   36 1
     6    3    4 ar
     7    3   31 1
     8    4    5 ar
     9    4   37 1
    10    5    6 ar
    11    5   38 1
    12    6    7 1
    13    7    8 1
    14    7   39 1
    15    7   40 1
    16    8    9 1
    17    8   10 1
    18    8   30 1
    19   10   11 1
    20   10   41 1
    21   10   42 1
    22   11   12 1
    23   11   43 1
    24   12   16 1
    25   12   13 2
    26   13   14 1
    27   14   15 2
    28   15   16 1
    29   15   17 1
    30   17   22 ar
    31   17   18 ar
    32   18   19 ar
    33   18   44 1
    34   19   20 ar
    35   19   45 1
    36   20   25 1
    37   20   21 ar
    38   21   22 ar
    39   21   23 1
    40   22   46 1
    41   23   24 2
    42   23   27 1
    43   24   25 1
    44   25   26 1
    45   27   29 1
    46   27   28 1
    47   27   47 1
    48   28   29 1
    49   28   48 1
    50   28   49 1
    51   29   50 1
    52   29   51 1
    53   30   52 1
    54   30   53 1
    55   30   54 1
    56   31   32 1
    57   31   33 1
    58   31   34 1
@<TRIPOS>MOLECULE
CHEMBL1081438
   57    61     0     0     0
SMALL
USER_CHARGES

@<TRIPOS>ATOM
      1 C1         -0.0167    1.3792    0.0096 C.ar      1 <0>        -0.1028
      2 C2          1.1686    2.0925    0.0021 C.ar      1 <0>        -0.1186
      3 C3          2.3774    1.4271   -0.0134 C.ar      1 <0>        -0.0843
      4 C4          2.4026    0.0331   -0.0211 C.ar      1 <0>        -0.0302
      5 C5          1.2048   -0.6804   -0.0130 C.ar      1 <0>        -0.0921
      6 C6          0.0021   -0.0041    0.0020 C.ar      1 <0>        -0.1183
      7 C7          3.6977   -0.6875   -0.0382 C.2       1 <0>         0.1559
      8 C8          3.9896   -1.9629    0.6260 C.ar      1 <0>        -0.1684
      9 C9          3.2381   -2.8366    1.4122 C.ar      1 <0>         0.0260
     10 C10         3.8291   -3.9944    1.9016 C.ar      1 <0>        -0.0683
     11 C11         5.1699   -4.2790    1.6064 C.ar      1 <0>        -0.0430
     12 C12         5.9079   -3.4284    0.8389 C.ar      1 <0>        -0.1314
     13 C13         5.3345   -2.2605    0.3366 C.ar      1 <0>         0.1541
     14 N1          5.8096   -1.2371   -0.4432 N.pl3     1 <0>        -0.4963
     15 H1          6.7109   -1.1723   -0.7959 H         1 <0>         0.4475
     16 N2          4.7895   -0.3044   -0.6543 N.2       1 <0>        -0.2295
     17 C14         3.0431   -4.9281    2.7358 C.2       1 <0>         0.1315
     18 N3          1.7777   -4.8612    3.1288 N.2       1 <0>        -0.2529
     19 N4          1.2549   -5.7555    3.8482 N.2       1 <0>        -0.3206
     20 C15         1.9398   -6.8173    4.2551 C.2       1 <0>         0.2891
     21 S1          3.5253   -6.4753    3.4970 S.3       1 <0>        -0.0089
     22 N5          1.5400   -7.8881    5.0389 N.pl3     1 <0>        -0.6953
     23 C16         0.1674   -7.9518    5.5469 C.3       1 <0>         0.1103
     24 C17        -0.0106   -9.2246    6.3770 C.3       1 <0>         0.0241
     25 H2          0.0992  -10.0969    5.7327 H         1 <0>         0.1566
     26 C18        -1.4036   -9.2302    7.0099 C.3       1 <0>        -0.0957
     27 C19        -1.6249  -10.5377    7.7258 C.ar      1 <0>        -0.1290
     28 C20        -2.1748  -11.6112    7.0501 C.ar      1 <0>        -0.0707
     29 C21        -2.3778  -12.8104    7.7067 C.ar      1 <0>        -0.1021
     30 C22        -2.0306  -12.9365    9.0390 C.ar      1 <0>        -0.0549
     31 C23        -1.4800  -11.8636    9.7142 C.ar      1 <0>        -0.1675
     32 C24        -1.2730  -10.6653    9.0562 C.ar      1 <0>        -0.0931
     33 C25        -1.1019  -12.0009   11.1665 C.3       1 <0>         0.5050
     34 F1         -1.4006  -13.2951   11.6058 F         1 <0>        -0.1685
     35 F2          0.2684  -11.7622   11.3162 F         1 <0>        -0.1779
     36 F3         -1.8226  -11.0728   11.9257 F         1 <0>        -0.1700
     37 N6          1.0079   -9.2659    7.4348 N.4       1 <0>        -0.6413
     38 H3         -0.9603    1.9042    0.0260 H         1 <0>         0.1278
     39 H4          1.1478    3.1723    0.0081 H         1 <0>         0.1300
     40 H5          3.3021    1.9850   -0.0199 H         1 <0>         0.1290
     41 H6          1.2182   -1.7603   -0.0192 H         1 <0>         0.1267
     42 H7         -0.9264   -0.5557    0.0082 H         1 <0>         0.1297
     43 H8          2.2057   -2.6146    1.6386 H         1 <0>         0.1460
     44 H9          5.6224   -5.1809    1.9914 H         1 <0>         0.1339
     45 H10         6.9397   -3.6594    0.6189 H         1 <0>         0.1410
     46 H11         2.1690   -8.5953    5.2511 H         1 <0>         0.4122
     47 H12        -0.0298   -7.0803    6.1712 H         1 <0>         0.1044
     48 H13        -0.5299   -7.9639    4.7092 H         1 <0>         0.1217
     49 H14        -1.4826   -8.4084    7.7216 H         1 <0>         0.1102
     50 H15        -2.1569   -9.1102    6.2313 H         1 <0>         0.1342
     51 H16        -2.4461  -11.5127    6.0094 H         1 <0>         0.1433
     52 H17        -2.8080  -13.6488    7.1791 H         1 <0>         0.1479
     53 H18        -2.1898  -13.8733    9.5522 H         1 <0>         0.1498
     54 H19        -0.8393   -9.8280    9.5828 H         1 <0>         0.1351
     55 H20         0.9063   -8.4584    8.0312 H         1 <0>         0.4383
     56 H21         0.8906  -10.1053    7.9822 H         1 <0>         0.4380
     57 H22         1.9266   -9.2622    7.0174 H         1 <0>         0.4324
@<TRIPOS>BOND
     1    1    6 ar
     2    1    2 ar
     3    1   38 1
     4    2    3 ar
     5    2   39 1
     6    3    4 ar
     7    3   40 1
     8    4    5 ar
     9    4    7 1
    10    5    6 ar
    11    5   41 1
    12    6   42 1
    13    7   16 2
    14    7    8 1
    15    8   13 ar
    16    8    9 ar
    17    9   10 ar
    18    9   43 1
    19   10   11 ar
    20   10   17 1
    21   11   12 ar
    22   11   44 1
    23   12   13 ar
    24   12   45 1
    25   13   14 1
    26   14   15 1
    27   14   16 1
    28   17   21 1
    29   17   18 2
    30   18   19 1
    31   19   20 2
    32   20   21 1
    33   20   22 1
    34   22   23 1
    35   22   46 1
    36   23   24 1
    37   23   47 1
    38   23   48 1
    39   24   25 1
    40   24   26 1
    41   24   37 1
    42   26   27 1
    43   26   49 1
    44   26   50 1
    45   27   32 ar
    46   27   28 ar
    47   28   29 ar
    48   28   51 1
    49   29   30 ar
    50   29   52 1
    51   30   31 ar
    52   30   53 1
    53   31   32 ar
    54   31   33 1
    55   32   54 1
    56   33   34 1
    57   33   35 1
    58   33   36 1
    59   37   55 1
    60   37   56 1
    61   37   57 1
@<TRIPOS>MOLECULE
CHEMBL202937
   50    53     0     0     0
SMALL
USER_CHARGES

@<TRIPOS>ATOM
      1 C1         -0.0178    1.4608    0.0101 C.3       1 <0>         0.0676
      2 N1          0.0021   -0.0041    0.0020 N.pl3     1 <0>        -0.4731
      3 C2          0.0080   -0.7840   -1.1223 C.2       1 <0>         0.0807
      4 C3          0.0270   -2.0816   -0.7792 C.2       1 <0>        -0.2290
      5 C4          0.0339   -2.1375    0.6846 C.ar      1 <0>        -0.1009
      6 C5          0.0236   -0.8010    1.1246 C.ar      1 <0>         0.0957
      7 C6          0.0324   -0.5329    2.4894 C.ar      1 <0>        -0.1194
      8 C7          0.0547   -1.5744    3.3912 C.ar      1 <0>        -0.0902
      9 C8          0.0685   -2.8909    2.9521 C.ar      1 <0>        -0.1283
     10 C9          0.0515   -3.1772    1.6158 C.ar      1 <0>        -0.0872
     11 C10         0.0386   -3.2578   -1.7212 C.3       1 <0>         0.0264
     12 C11         1.2833   -3.1885   -2.6082 C.3       1 <0>        -0.0023
     13 N2          2.4854   -3.3436   -1.7782 N.4       1 <0>        -0.6346
     14 C12        -1.1961   -3.2221   -2.5846 C.ar      1 <0>        -0.1382
     15 C13        -2.1004   -4.2688   -2.5544 C.ar      1 <0>        -0.0509
     16 C14        -3.2339   -4.1906   -3.3744 C.ar      1 <0>        -0.0910
     17 C15        -3.4035   -3.0646   -4.1846 C.ar      1 <0>         0.1165
     18 N3         -2.5132   -2.0948   -4.1770 N.ar      1 <0>        -0.4699
     19 C16        -1.4397   -2.1399   -3.4110 C.ar      1 <0>         0.1019
     20 C17        -4.2298   -5.2770   -3.3826 C.2       1 <0>        -0.1092
     21 C18        -5.3117   -5.1900   -4.1730 C.2       1 <0>        -0.0856
     22 C19        -6.3074   -6.2762   -4.1812 C.ar      1 <0>        -0.0241
     23 C20        -6.1477   -7.4065   -3.3676 C.ar      1 <0>        -0.1665
     24 C21        -7.1045   -8.3984   -3.4072 C.ar      1 <0>         0.1038
     25 N4         -8.1575   -8.2938   -4.1958 N.ar      1 <0>        -0.4812
     26 C22        -8.3470   -7.2476   -4.9775 C.ar      1 <0>         0.1048
     27 C23        -7.4440   -6.2059   -4.9985 C.ar      1 <0>        -0.1578
     28 H1          1.0048    1.8381    0.0023 H         1 <0>         0.0786
     29 H2         -0.5450    1.8219   -0.8730 H         1 <0>         0.0901
     30 H3         -0.5280    1.8123    0.9069 H         1 <0>         0.0888
     31 H4         -0.0017   -0.4107   -2.1357 H         1 <0>         0.1699
     32 H5          0.0222    0.4882    2.8410 H         1 <0>         0.1249
     33 H6          0.0619   -1.3642    4.4506 H         1 <0>         0.1326
     34 H7          0.0863   -3.6957    3.6722 H         1 <0>         0.1289
     35 H8          0.0637   -4.2041    1.2814 H         1 <0>         0.1210
     36 H9          0.0533   -4.1837   -1.1462 H         1 <0>         0.1101
     37 H10         1.2471   -3.9881   -3.3482 H         1 <0>         0.1413
     38 H11         1.3144   -2.2246   -3.1161 H         1 <0>         0.1335
     39 H12         3.3062   -3.2979   -2.3631 H         1 <0>         0.4383
     40 H13         2.5189   -2.6034   -1.0932 H         1 <0>         0.4365
     41 H14        -1.9367   -5.1241   -1.9156 H         1 <0>         0.1414
     42 H15        -4.2717   -2.9897   -4.8225 H         1 <0>         0.1636
     43 H16        -0.7371   -1.3200   -3.4330 H         1 <0>         0.1488
     44 H17        -4.0892   -6.1432   -2.7530 H         1 <0>         0.1312
     45 H18        -5.4523   -4.3239   -4.8026 H         1 <0>         0.1304
     46 H19        -5.2883   -7.4991   -2.7201 H         1 <0>         0.1359
     47 H20        -6.9904   -9.2734   -2.7845 H         1 <0>         0.1593
     48 H21        -9.2239   -7.2048   -5.6066 H         1 <0>         0.1612
     49 H22        -7.6080   -5.3508   -5.6374 H         1 <0>         0.1400
     50 H23         2.4566   -4.2359   -1.3080 H         1 <0>         0.4353
@<TRIPOS>BOND
     1    1    2 1
     2    1   28 1
     3    1   29 1
     4    1   30 1
     5    2    6 1
     6    2    3 1
     7    3    4 2
     8    3   31 1
     9    4    5 1
    10    4   11 1
    11    5   10 ar
    12    5    6 ar
    13    6    7 ar
    14    7    8 ar
    15    7   32 1
    16    8    9 ar
    17    8   33 1
    18    9   10 ar
    19    9   34 1
    20   10   35 1
    21   11   12 1
    22   11   14 1
    23   11   36 1
    24   12   13 1
    25   12   37 1
    26   12   38 1
    27   13   39 1
    28   13   40 1
    29   13   50 1
    30   14   19 ar
    31   14   15 ar
    32   15   16 ar
    33   15   41 1
    34   16   17 ar
    35   16   20 1
    36   17   18 ar
    37   17   42 1
    38   18   19 ar
    39   19   43 1
    40   20   21 2
    41   20   44 1
    42   21   22 1
    43   21   45 1
    44   22   27 ar
    45   22   23 ar
    46   23   24 ar
    47   23   46 1
    48   24   25 ar
    49   24   47 1
    50   25   26 ar
    51   26   27 ar
    52   26   48 1
    53   27   49 1
@<TRIPOS>MOLECULE
CHEMBL202937
   50    53     0     0     0
SMALL
USER_CHARGES

@<TRIPOS>ATOM
      1 C1         -0.0178    1.4608    0.0101 C.3       1 <0>         0.0698
      2 N1          0.0021   -0.0041    0.0020 N.pl3     1 <0>        -0.4752
      3 C2          0.0080   -0.7840   -1.1223 C.2       1 <0>         0.0778
      4 C3          0.0270   -2.0816   -0.7792 C.2       1 <0>        -0.1960
      5 C4          0.0339   -2.1375    0.6846 C.ar      1 <0>        -0.0938
      6 C5          0.0236   -0.8010    1.1246 C.ar      1 <0>         0.0962
      7 C6          0.0324   -0.5329    2.4894 C.ar      1 <0>        -0.1211
      8 C7          0.0547   -1.5744    3.3912 C.ar      1 <0>        -0.0922
      9 C8          0.0685   -2.8909    2.9521 C.ar      1 <0>        -0.1318
     10 C9          0.0515   -3.1772    1.6158 C.ar      1 <0>        -0.0820
     11 C10         0.0386   -3.2578   -1.7212 C.3       1 <0>         0.0279
     12 C11        -1.2149   -3.2216   -2.5978 C.3       1 <0>        -0.0042
     13 N2         -1.2643   -4.4298   -3.4318 N.4       1 <0>        -0.6380
     14 C12         1.2646   -3.1896   -2.5949 C.ar      1 <0>        -0.1690
     15 C13         2.1907   -4.2174   -2.5809 C.ar      1 <0>        -0.0617
     16 C14         3.3146   -4.1095   -3.4108 C.ar      1 <0>        -0.0869
     17 C15         3.4531   -2.9744   -4.2141 C.ar      1 <0>         0.1171
     18 N3          2.5430   -2.0234   -4.1909 N.ar      1 <0>        -0.4656
     19 C16         1.4726   -2.1014   -3.4232 C.ar      1 <0>         0.0999
     20 C17         4.3332   -5.1744   -3.4357 C.2       1 <0>        -0.1167
     21 C18         5.4057   -5.0591   -4.2354 C.2       1 <0>        -0.0783
     22 C19         6.4240   -6.1238   -4.2602 C.ar      1 <0>        -0.0276
     23 C20         6.2901   -7.2681   -3.4617 C.ar      1 <0>        -0.1654
     24 C21         7.2671   -8.2393   -3.5173 C.ar      1 <0>         0.1041
     25 N4          8.3154   -8.1022   -4.3072 N.ar      1 <0>        -0.4794
     26 C22         8.4810   -7.0418   -5.0751 C.ar      1 <0>         0.1055
     27 C23         7.5512   -6.0238   -5.0874 C.ar      1 <0>        -0.1565
     28 H1          1.0048    1.8381    0.0023 H         1 <0>         0.0770
     29 H2         -0.5450    1.8219   -0.8730 H         1 <0>         0.0884
     30 H3         -0.5280    1.8123    0.9069 H         1 <0>         0.0881
     31 H4         -0.0017   -0.4107   -2.1357 H         1 <0>         0.1663
     32 H5          0.0222    0.4882    2.8410 H         1 <0>         0.1240
     33 H6          0.0619   -1.3642    4.4506 H         1 <0>         0.1315
     34 H7          0.0863   -3.6957    3.6722 H         1 <0>         0.1275
     35 H8          0.0637   -4.2041    1.2814 H         1 <0>         0.1192
     36 H9          0.0533   -4.1837   -1.1462 H         1 <0>         0.1104
     37 H10        -2.1006   -3.1813   -1.9637 H         1 <0>         0.1465
     38 H11        -1.1856   -2.3395   -3.2374 H         1 <0>         0.1339
     39 H12        -2.0910   -4.4060   -4.0098 H         1 <0>         0.4400
     40 H13        -0.4445   -4.4671   -4.0187 H         1 <0>         0.4322
     41 H14         2.0512   -5.0802   -1.9466 H         1 <0>         0.1432
     42 H15         4.3139   -2.8763   -4.8589 H         1 <0>         0.1648
     43 H16         0.7488   -1.3000   -3.4387 H         1 <0>         0.1532
     44 H17         4.2170   -6.0476   -2.8108 H         1 <0>         0.1320
     45 H18         5.5219   -4.1860   -4.8603 H         1 <0>         0.1307
     46 H19         5.4351   -7.3869   -2.8127 H         1 <0>         0.1358
     47 H20         7.1733   -9.1245   -2.9057 H         1 <0>         0.1599
     48 H21         9.3550   -6.9723   -5.7057 H         1 <0>         0.1619
     49 H22         7.6910   -5.1611   -5.7219 H         1 <0>         0.1404
     50 H23        -1.2915   -5.2464   -2.8396 H         1 <0>         0.4359
@<TRIPOS>BOND
     1    1    2 1
     2    1   28 1
     3    1   29 1
     4    1   30 1
     5    2    6 1
     6    2    3 1
     7    3    4 2
     8    3   31 1
     9    4    5 1
    10    4   11 1
    11    5   10 ar
    12    5    6 ar
    13    6    7 ar
    14    7    8 ar
    15    7   32 1
    16    8    9 ar
    17    8   33 1
    18    9   10 ar
    19    9   34 1
    20   10   35 1
    21   11   12 1
    22   11   14 1
    23   11   36 1
    24   12   13 1
    25   12   37 1
    26   12   38 1
    27   13   39 1
    28   13   40 1
    29   13   50 1
    30   14   19 ar
    31   14   15 ar
    32   15   16 ar
    33   15   41 1
    34   16   17 ar
    35   16   20 1
    36   17   18 ar
    37   17   42 1
    38   18   19 ar
    39   19   43 1
    40   20   21 2
    41   20   44 1
    42   21   22 1
    43   21   45 1
    44   22   27 ar
    45   22   23 ar
    46   23   24 ar
    47   23   46 1
    48   24   25 ar
    49   24   47 1
    50   25   26 ar
    51   26   27 ar
    52   26   48 1
    53   27   49 1
@<TRIPOS>MOLECULE
CHEMBL262341
   71    77     0     0     0
SMALL
USER_CHARGES

@<TRIPOS>ATOM
      1 C1         -0.8801   -1.7501    0.2025 C.ar      1 <0>        -0.1086
      2 C2         -0.2662   -0.5685    0.5771 C.ar      1 <0>        -0.1133
      3 C3          1.1093   -0.4611    0.5416 C.ar      1 <0>        -0.1091
      4 C4          1.8798   -1.5457    0.1275 C.ar      1 <0>        -0.0504
      5 C5          1.2561   -2.7336   -0.2488 C.ar      1 <0>        -0.0988
      6 C6         -0.1201   -2.8300   -0.2094 C.ar      1 <0>        -0.1125
      7 C7          3.3590   -1.4360    0.0868 C.2       1 <0>        -0.1303
      8 C8          4.0592   -1.2701    1.2298 C.2       1 <0>        -0.0302
      9 C9          5.5355   -1.0851    1.1733 C.3       1 <0>        -0.1788
     10 C10         6.0889   -1.6628   -0.1011 C.2       1 <0>         0.1709
     11 C11         7.3344   -2.2673   -0.0119 C.2       1 <0>        -0.1995
     12 C12         7.9259   -2.4366    1.2333 C.2       1 <0>         0.2836
     13 N1          7.3756   -2.1056    2.3803 N.2       1 <0>        -0.5754
     14 C13         6.1983   -1.4749    2.4672 C.2       1 <0>         0.5261
     15 O1          5.6879   -1.2276    3.5421 O.2       1 <0>        -0.4314
     16 N2          5.3825   -1.6920   -1.2163 N.2       1 <0>        -0.4781
     17 C14         4.0727   -1.5135   -1.2007 C.2       1 <0>         0.2919
     18 C15         3.3291   -1.3865   -2.4686 C.ar      1 <0>        -0.0276
     19 C16         2.2060   -0.5574   -2.5444 C.ar      1 <0>        -0.0738
     20 C17         1.5164   -0.4434   -3.7329 C.ar      1 <0>        -0.0994
     21 C18         1.9334   -1.1477   -4.8493 C.ar      1 <0>        -0.1401
     22 C19         3.0444   -1.9705   -4.7820 C.ar      1 <0>        -0.0974
     23 C20         3.7476   -2.0902   -3.6020 C.ar      1 <0>        -0.0644
     24 C21         1.1736   -1.0183   -6.1443 C.3       1 <0>         0.0416
     25 N3          1.7353    0.0862   -6.9333 N.4       1 <0>        -0.3838
     26 C22         1.5232    1.3518   -6.2208 C.3       1 <0>        -0.0103
     27 C23         2.1775    2.4955   -6.9990 C.3       1 <0>        -0.1383
     28 C24         1.5499    2.5814   -8.3933 C.3       1 <0>         0.0021
     29 C25         1.7116    1.2320   -9.0992 C.3       1 <0>        -0.1402
     30 C26         1.0746    0.1352   -8.2431 C.3       1 <0>        -0.0031
     31 C27         2.2431    3.6545   -9.1927 C.2       1 <0>         0.2193
     32 N4          1.6584    4.7342   -9.7017 N.2       1 <0>        -0.5191
     33 C28         2.5494    5.4641  -10.3411 C.2       1 <0>         0.3523
     34 N5          3.7443    4.8383  -10.2424 N.pl3     1 <0>        -0.4475
     35 H1          4.5897    5.1357  -10.6137 H         1 <0>         0.4545
     36 N6          3.5170    3.6739   -9.4908 N.2       1 <0>        -0.3003
     37 C29         2.2890    6.7410  -11.0429 C.ar      1 <0>         0.1601
     38 C30         0.9998    7.2719  -11.0574 C.ar      1 <0>        -0.1102
     39 C31         0.7723    8.4671  -11.7175 C.ar      1 <0>        -0.0737
     40 C32         1.8417    9.0929  -12.3421 C.ar      1 <0>        -0.1432
     41 C33         3.0950    8.5100  -12.2882 C.ar      1 <0>         0.1096
     42 N7          3.2859    7.3744  -11.6490 N.ar      1 <0>        -0.4750
     43 H2         -1.9565   -1.8313    0.2360 H         1 <0>         0.1272
     44 H3         -0.8644    0.2716    0.8976 H         1 <0>         0.1292
     45 H4          1.5875    0.4621    0.8340 H         1 <0>         0.1259
     46 H5          1.8486   -3.5772   -0.5709 H         1 <0>         0.1205
     47 H6         -0.6045   -3.7502   -0.5008 H         1 <0>         0.1273
     48 H7          3.5496   -1.2713    2.1820 H         1 <0>         0.1568
     49 H8          5.6836   -0.0092    1.0802 H         1 <0>         0.1566
     50 H9          7.8404   -2.6042   -0.9045 H         1 <0>         0.1606
     51 H10         8.9134   -2.8732    1.2613 H         1 <0>         0.1749
     52 H11         1.8791   -0.0078   -1.6740 H         1 <0>         0.1442
     53 H12         0.6487    0.1967   -3.7930 H         1 <0>         0.1385
     54 H13         3.3638   -2.5169   -5.6571 H         1 <0>         0.1390
     55 H14         4.6169   -2.7291   -3.5522 H         1 <0>         0.1457
     56 H15         1.2568   -1.9471   -6.7087 H         1 <0>         0.1405
     57 H16         0.1241   -0.8154   -5.9310 H         1 <0>         0.1391
     58 H17         0.4538    1.5412   -6.1280 H         1 <0>         0.1337
     59 H18         1.9676    1.2880   -5.2276 H         1 <0>         0.1351
     60 H19         2.0174    3.4345   -6.4693 H         1 <0>         0.1154
     61 H20         3.2470    2.3072   -7.0923 H         1 <0>         0.0962
     62 H21         0.4904    2.8203   -8.3020 H         1 <0>         0.1177
     63 H22         1.2185    1.2680  -10.0706 H         1 <0>         0.1169
     64 H23         2.7715    1.0175   -9.2360 H         1 <0>         0.0969
     65 H24         1.1878   -0.8268   -8.7429 H         1 <0>         0.1364
     66 H25         0.0148    0.3506   -8.1072 H         1 <0>         0.1342
     67 H26         0.1902    6.7578  -10.5608 H         1 <0>         0.1515
     68 H27        -0.2156    8.9026  -11.7462 H         1 <0>         0.1490
     69 H28         1.6969   10.0263  -12.8658 H         1 <0>         0.1483
     70 H29         3.9292    8.9946  -12.7737 H         1 <0>         0.1701
     71 H30         2.7248   -0.0632   -7.0622 H         1 <0>         0.4240
@<TRIPOS>BOND
     1    1    6 ar
     2    1    2 ar
     3    1   43 1
     4    2    3 ar
     5    2   44 1
     6    3    4 ar
     7    3   45 1
     8    4    5 ar
     9    4    7 1
    10    5    6 ar
    11    5   46 1
    12    6   47 1
    13    7   17 1
    14    7    8 2
    15    8    9 1
    16    8   48 1
    17    9   14 1
    18    9   10 1
    19    9   49 1
    20   10   11 2
    21   10   16 1
    22   11   12 1
    23   11   50 1
    24   12   13 2
    25   12   51 1
    26   13   14 1
    27   14   15 2
    28   16   17 2
    29   17   18 1
    30   18   23 ar
    31   18   19 ar
    32   19   20 ar
    33   19   52 1
    34   20   21 ar
    35   20   53 1
    36   21   22 ar
    37   21   24 1
    38   22   23 ar
    39   22   54 1
    40   23   55 1
    41   24   25 1
    42   24   56 1
    43   24   57 1
    44   25   30 1
    45   25   26 1
    46   25   71 1
    47   26   27 1
    48   26   58 1
    49   26   59 1
    50   27   28 1
    51   27   60 1
    52   27   61 1
    53   28   29 1
    54   28   31 1
    55   28   62 1
    56   29   30 1
    57   29   63 1
    58   29   64 1
    59   30   65 1
    60   30   66 1
    61   31   36 2
    62   31   32 1
    63   32   33 2
    64   33   34 1
    65   33   37 1
    66   34   35 1
    67   34   36 1
    68   37   42 ar
    69   37   38 ar
    70   38   39 ar
    71   38   67 1
    72   39   40 ar
    73   39   68 1
    74   40   41 ar
    75   40   69 1
    76   41   42 ar
    77   41   70 1
@<TRIPOS>MOLECULE
CHEMBL262341
   71    77     0     0     0
SMALL
USER_CHARGES

@<TRIPOS>ATOM
      1 C1         -0.8801   -1.7501    0.2025 C.ar      1 <0>        -0.1083
      2 C2         -0.2662   -0.5685    0.5771 C.ar      1 <0>        -0.1130
      3 C3          1.1093   -0.4611    0.5416 C.ar      1 <0>        -0.1091
      4 C4          1.8798   -1.5457    0.1275 C.ar      1 <0>        -0.0508
      5 C5          1.2561   -2.7336   -0.2488 C.ar      1 <0>        -0.0990
      6 C6         -0.1201   -2.8300   -0.2094 C.ar      1 <0>        -0.1126
      7 C7          3.3590   -1.4360    0.0868 C.2       1 <0>        -0.1306
      8 C8          4.0592   -1.2701    1.2298 C.2       1 <0>        -0.0297
      9 C9          5.5355   -1.0851    1.1733 C.3       1 <0>        -0.1787
     10 C10         6.0889   -1.6628   -0.1011 C.2       1 <0>         0.1698
     11 C11         7.3344   -2.2673   -0.0119 C.2       1 <0>        -0.1982
     12 C12         7.9259   -2.4366    1.2333 C.2       1 <0>         0.2831
     13 N1          7.3756   -2.1056    2.3803 N.2       1 <0>        -0.5745
     14 C13         6.1983   -1.4749    2.4672 C.2       1 <0>         0.5259
     15 O1          5.6879   -1.2276    3.5421 O.2       1 <0>        -0.4306
     16 N2          5.3825   -1.6920   -1.2163 N.2       1 <0>        -0.4776
     17 C14         4.0727   -1.5135   -1.2007 C.2       1 <0>         0.2906
     18 C15         3.3291   -1.3865   -2.4686 C.ar      1 <0>        -0.0256
     19 C16         2.2060   -0.5574   -2.5444 C.ar      1 <0>        -0.0735
     20 C17         1.5164   -0.4434   -3.7329 C.ar      1 <0>        -0.0991
     21 C18         1.9334   -1.1477   -4.8493 C.ar      1 <0>        -0.1423
     22 C19         3.0444   -1.9705   -4.7820 C.ar      1 <0>        -0.0976
     23 C20         3.7476   -2.0902   -3.6020 C.ar      1 <0>        -0.0650
     24 C21         1.1736   -1.0183   -6.1443 C.3       1 <0>         0.0419
     25 N3          1.7353    0.0862   -6.9333 N.4       1 <0>        -0.3848
     26 C22         1.5232    1.3518   -6.2208 C.3       1 <0>        -0.0113
     27 C23         2.1775    2.4955   -6.9990 C.3       1 <0>        -0.1386
     28 C24         1.5499    2.5814   -8.3933 C.3       1 <0>        -0.0160
     29 C25         1.7116    1.2320   -9.0992 C.3       1 <0>        -0.1490
     30 C26         1.0746    0.1352   -8.2431 C.3       1 <0>        -0.0020
     31 C27         2.2431    3.6545   -9.1927 C.2       1 <0>         0.2706
     32 N4          1.8478    4.8937   -9.3144 N.2       1 <0>        -0.4884
     33 C28         2.7017    5.5675  -10.0969 C.2       1 <0>         0.2885
     34 N5          3.6567    4.7491  -10.4814 N.2       1 <0>        -0.2777
     35 H1          3.9011    2.6898   -9.9888 H         1 <0>         0.4404
     36 N6          3.3785    3.5020   -9.8986 N.pl3     1 <0>        -0.4754
     37 C29         2.5885    6.9994  -10.4684 C.ar      1 <0>         0.1844
     38 C30         3.5478    7.5758  -11.2983 C.ar      1 <0>        -0.1314
     39 C31         3.4286    8.9125  -11.6365 C.ar      1 <0>        -0.0745
     40 C32         2.3524    9.6299  -11.1330 C.ar      1 <0>        -0.1507
     41 C33         1.4374    8.9943  -10.3146 C.ar      1 <0>         0.1033
     42 N7          1.5717    7.7188  -10.0121 N.ar      1 <0>        -0.4471
     43 H2         -1.9565   -1.8313    0.2360 H         1 <0>         0.1274
     44 H3         -0.8644    0.2716    0.8976 H         1 <0>         0.1295
     45 H4          1.5875    0.4621    0.8340 H         1 <0>         0.1261
     46 H5          1.8486   -3.5772   -0.5709 H         1 <0>         0.1204
     47 H6         -0.6045   -3.7502   -0.5008 H         1 <0>         0.1273
     48 H7          3.5496   -1.2713    2.1820 H         1 <0>         0.1570
     49 H8          5.6836   -0.0092    1.0802 H         1 <0>         0.1567
     50 H9          7.8404   -2.6042   -0.9045 H         1 <0>         0.1606
     51 H10         8.9134   -2.8732    1.2613 H         1 <0>         0.1751
     52 H11         1.8791   -0.0078   -1.6740 H         1 <0>         0.1449
     53 H12         0.6487    0.1967   -3.7930 H         1 <0>         0.1390
     54 H13         3.3638   -2.5169   -5.6571 H         1 <0>         0.1386
     55 H14         4.6169   -2.7291   -3.5522 H         1 <0>         0.1459
     56 H15         1.2568   -1.9471   -6.7087 H         1 <0>         0.1413
     57 H16         0.1241   -0.8154   -5.9310 H         1 <0>         0.1403
     58 H17         0.4538    1.5412   -6.1280 H         1 <0>         0.1373
     59 H18         1.9676    1.2880   -5.2276 H         1 <0>         0.1379
     60 H19         2.0174    3.4345   -6.4693 H         1 <0>         0.1245
     61 H20         3.2470    2.3072   -7.0923 H         1 <0>         0.0900
     62 H21         0.4904    2.8203   -8.3020 H         1 <0>         0.1307
     63 H22         1.2185    1.2680  -10.0706 H         1 <0>         0.1239
     64 H23         2.7715    1.0175   -9.2360 H         1 <0>         0.0884
     65 H24         1.1878   -0.8268   -8.7429 H         1 <0>         0.1394
     66 H25         0.0148    0.3506   -8.1072 H         1 <0>         0.1380
     67 H26         4.3730    6.9879  -11.6720 H         1 <0>         0.1437
     68 H27         4.1569    9.3869  -12.2776 H         1 <0>         0.1457
     69 H28         2.2312   10.6747  -11.3780 H         1 <0>         0.1451
     70 H29         0.5988    9.5496   -9.9211 H         1 <0>         0.1669
     71 H30         2.7248   -0.0632   -7.0622 H         1 <0>         0.4226
@<TRIPOS>BOND
     1    1    6 ar
     2    1    2 ar
     3    1   43 1
     4    2    3 ar
     5    2   44 1
     6    3    4 ar
     7    3   45 1
     8    4    5 ar
     9    4    7 1
    10    5    6 ar
    11    5   46 1
    12    6   47 1
    13    7   17 1
    14    7    8 2
    15    8    9 1
    16    8   48 1
    17    9   14 1
    18    9   10 1
    19    9   49 1
    20   10   11 2
    21   10   16 1
    22   11   12 1
    23   11   50 1
    24   12   13 2
    25   12   51 1
    26   13   14 1
    27   14   15 2
    28   16   17 2
    29   17   18 1
    30   18   23 ar
    31   18   19 ar
    32   19   20 ar
    33   19   52 1
    34   20   21 ar
    35   20   53 1
    36   21   22 ar
    37   21   24 1
    38   22   23 ar
    39   22   54 1
    40   23   55 1
    41   24   25 1
    42   24   56 1
    43   24   57 1
    44   25   30 1
    45   25   26 1
    46   25   71 1
    47   26   27 1
    48   26   58 1
    49   26   59 1
    50   27   28 1
    51   27   60 1
    52   27   61 1
    53   28   29 1
    54   28   62 1
    55   28   31 1
    56   29   30 1
    57   29   63 1
    58   29   64 1
    59   30   65 1
    60   30   66 1
    61   31   32 2
    62   31   36 1
    63   32   33 1
    64   33   37 1
    65   33   34 2
    66   34   36 1
    67   35   36 1
    68   37   42 ar
    69   37   38 ar
    70   38   39 ar
    71   38   67 1
    72   39   40 ar
    73   39   68 1
    74   40   41 ar
    75   40   69 1
    76   41   42 ar
    77   41   70 1
@<TRIPOS>MOLECULE
CHEMBL262341
   71    77     0     0     0
SMALL
USER_CHARGES

@<TRIPOS>ATOM
      1 C1         -0.4198   -1.4700    1.2407 C.ar      1 <0>        -0.1082
      2 C2          0.3187   -0.3067    1.3622 C.ar      1 <0>        -0.1129
      3 C3          1.6561   -0.2965    1.0213 C.ar      1 <0>        -0.1050
      4 C4          2.2622   -1.4610    0.5542 C.ar      1 <0>        -0.0534
      5 C5          1.5135   -2.6301    0.4339 C.ar      1 <0>        -0.0984
      6 C6          0.1768   -2.6288    0.7776 C.ar      1 <0>        -0.1156
      7 C7          3.6996   -1.4561    0.1857 C.2       1 <0>        -0.1294
      8 C8          4.6444   -1.3089    1.1395 C.2       1 <0>        -0.0293
      9 C9          6.0853   -1.3818    0.7716 C.3       1 <0>        -0.1795
     10 C10         6.2725   -1.0564   -0.6855 C.2       1 <0>         0.1709
     11 C11         7.4193   -0.3485   -1.0147 C.2       1 <0>        -0.2002
     12 C12         8.2377    0.1383   -0.0036 C.2       1 <0>         0.2835
     13 N1          7.9940    0.0252    1.2832 N.2       1 <0>        -0.5755
     14 C13         6.9546   -0.6642    1.7689 C.2       1 <0>         0.5261
     15 O1          6.7231   -0.7084    2.9613 O.2       1 <0>        -0.4315
     16 N2          5.3453   -1.3308   -1.5846 N.2       1 <0>        -0.4774
     17 C14         4.1041   -1.6179   -1.2225 C.2       1 <0>         0.2913
     18 C15         3.1293   -2.0917   -2.2235 C.ar      1 <0>        -0.0277
     19 C16         1.8191   -1.6036   -2.2140 C.ar      1 <0>        -0.0714
     20 C17         0.9138   -2.0507   -3.1530 C.ar      1 <0>        -0.0999
     21 C18         1.2992   -2.9807   -4.1031 C.ar      1 <0>        -0.1392
     22 C19         2.5945   -3.4685   -4.1188 C.ar      1 <0>        -0.0974
     23 C20         3.5126   -3.0265   -3.1899 C.ar      1 <0>        -0.0649
     24 C21         0.3033   -3.4649   -5.1253 C.3       1 <0>         0.0416
     25 N3          0.3551   -2.5966   -6.3090 N.4       1 <0>        -0.3838
     26 C22        -0.0800   -1.2439   -5.9412 C.3       1 <0>        -0.0104
     27 C23         0.0491   -0.3158   -7.1509 C.3       1 <0>        -0.1383
     28 C24        -0.8290   -0.8443   -8.2888 C.3       1 <0>         0.0022
     29 C25        -0.4153   -2.2825   -8.6139 C.3       1 <0>        -0.1402
     30 C26        -0.5271   -3.1377   -7.3499 C.3       1 <0>        -0.0031
     31 C27        -0.6467    0.0205   -9.5094 C.2       1 <0>         0.2192
     32 N4         -1.6084    0.7098  -10.1152 N.2       1 <0>        -0.5191
     33 C28        -1.1096    1.3576  -11.1481 C.2       1 <0>         0.3523
     34 N5          0.2124    1.0791  -11.2118 N.pl3     1 <0>        -0.4475
     35 H1          0.8464    1.4113  -11.8665 H         1 <0>         0.4545
     36 N6          0.4843    0.2165  -10.1374 N.2       1 <0>        -0.3001
     37 C29        -1.8620    2.2333  -12.0743 C.ar      1 <0>         0.1602
     38 C30        -3.2285    2.4326  -11.8812 C.ar      1 <0>        -0.1102
     39 C31        -3.9182    3.2547  -12.7555 C.ar      1 <0>        -0.0738
     40 C32        -3.2188    3.8512  -13.7951 C.ar      1 <0>        -0.1433
     41 C33        -1.8632    3.6098  -13.9277 C.ar      1 <0>         0.1096
     42 N7         -1.2294    2.8272  -13.0790 N.ar      1 <0>        -0.4749
     43 H2         -1.4649   -1.4746    1.5128 H         1 <0>         0.1277
     44 H3         -0.1522    0.5954    1.7240 H         1 <0>         0.1299
     45 H4          2.2316    0.6124    1.1162 H         1 <0>         0.1254
     46 H5          1.9782   -3.5353    0.0720 H         1 <0>         0.1215
     47 H6         -0.4044   -3.5343    0.6848 H         1 <0>         0.1271
     48 H7          4.3556   -1.1384    2.1661 H         1 <0>         0.1568
     49 H8          6.3476   -2.4362    0.8587 H         1 <0>         0.1571
     50 H9          7.6742   -0.1775   -2.0502 H         1 <0>         0.1602
     51 H10         9.1434    0.6483   -0.2969 H         1 <0>         0.1746
     52 H11         1.5169   -0.8786   -1.4728 H         1 <0>         0.1450
     53 H12        -0.0986   -1.6746   -3.1469 H         1 <0>         0.1386
     54 H13         2.8879   -4.1939   -4.8632 H         1 <0>         0.1391
     55 H14         4.5241   -3.4046   -3.2061 H         1 <0>         0.1420
     56 H15         0.5468   -4.4874   -5.4138 H         1 <0>         0.1404
     57 H16        -0.6990   -3.4369   -4.6977 H         1 <0>         0.1392
     58 H17        -1.1198   -1.2731   -5.6155 H         1 <0>         0.1337
     59 H18         0.5438   -0.8703   -5.1291 H         1 <0>         0.1354
     60 H19        -0.2761    0.6876   -6.8762 H         1 <0>         0.1155
     61 H20         1.0887   -0.2857   -7.4773 H         1 <0>         0.0964
     62 H21        -1.8744   -0.8266   -7.9809 H         1 <0>         0.1176
     63 H22        -1.0724   -2.6849   -9.3849 H         1 <0>         0.1169
     64 H23         0.6146   -2.2932   -8.9706 H         1 <0>         0.0969
     65 H24        -0.2335   -4.1624   -7.5778 H         1 <0>         0.1363
     66 H25        -1.5574   -3.1266   -6.9942 H         1 <0>         0.1342
     67 H26        -3.7415    1.9520  -11.0614 H         1 <0>         0.1514
     68 H27        -4.9770    3.4277  -12.6316 H         1 <0>         0.1490
     69 H28        -3.7282    4.4977  -14.4943 H         1 <0>         0.1482
     70 H29        -1.3164    4.0724  -14.7360 H         1 <0>         0.1701
     71 H30         1.3014   -2.5603   -6.6571 H         1 <0>         0.4241
@<TRIPOS>BOND
     1    1    6 ar
     2    1    2 ar
     3    1   43 1
     4    2    3 ar
     5    2   44 1
     6    3    4 ar
     7    3   45 1
     8    4    5 ar
     9    4    7 1
    10    5    6 ar
    11    5   46 1
    12    6   47 1
    13    7   17 1
    14    7    8 2
    15    8    9 1
    16    8   48 1
    17    9   14 1
    18    9   10 1
    19    9   49 1
    20   10   11 2
    21   10   16 1
    22   11   12 1
    23   11   50 1
    24   12   13 2
    25   12   51 1
    26   13   14 1
    27   14   15 2
    28   16   17 2
    29   17   18 1
    30   18   23 ar
    31   18   19 ar
    32   19   20 ar
    33   19   52 1
    34   20   21 ar
    35   20   53 1
    36   21   22 ar
    37   21   24 1
    38   22   23 ar
    39   22   54 1
    40   23   55 1
    41   24   25 1
    42   24   56 1
    43   24   57 1
    44   25   30 1
    45   25   26 1
    46   25   71 1
    47   26   27 1
    48   26   58 1
    49   26   59 1
    50   27   28 1
    51   27   60 1
    52   27   61 1
    53   28   29 1
    54   28   31 1
    55   28   62 1
    56   29   30 1
    57   29   63 1
    58   29   64 1
    59   30   65 1
    60   30   66 1
    61   31   36 2
    62   31   32 1
    63   32   33 2
    64   33   34 1
    65   33   37 1
    66   34   35 1
    67   34   36 1
    68   37   42 ar
    69   37   38 ar
    70   38   39 ar
    71   38   67 1
    72   39   40 ar
    73   39   68 1
    74   40   41 ar
    75   40   69 1
    76   41   42 ar
    77   41   70 1
@<TRIPOS>MOLECULE
CHEMBL262341
   71    77     0     0     0
SMALL
USER_CHARGES

@<TRIPOS>ATOM
      1 C1         -0.4198   -1.4700    1.2407 C.ar      1 <0>        -0.1079
      2 C2          0.3187   -0.3067    1.3622 C.ar      1 <0>        -0.1125
      3 C3          1.6561   -0.2965    1.0213 C.ar      1 <0>        -0.1049
      4 C4          2.2622   -1.4610    0.5542 C.ar      1 <0>        -0.0539
      5 C5          1.5135   -2.6301    0.4339 C.ar      1 <0>        -0.0988
      6 C6          0.1768   -2.6288    0.7776 C.ar      1 <0>        -0.1157
      7 C7          3.6996   -1.4561    0.1857 C.2       1 <0>        -0.1296
      8 C8          4.6444   -1.3089    1.1395 C.2       1 <0>        -0.0289
      9 C9          6.0853   -1.3818    0.7716 C.3       1 <0>        -0.1794
     10 C10         6.2725   -1.0564   -0.6855 C.2       1 <0>         0.1697
     11 C11         7.4193   -0.3485   -1.0147 C.2       1 <0>        -0.1988
     12 C12         8.2377    0.1383   -0.0036 C.2       1 <0>         0.2831
     13 N1          7.9940    0.0252    1.2832 N.2       1 <0>        -0.5746
     14 C13         6.9546   -0.6642    1.7689 C.2       1 <0>         0.5259
     15 O1          6.7231   -0.7084    2.9613 O.2       1 <0>        -0.4308
     16 N2          5.3453   -1.3308   -1.5846 N.2       1 <0>        -0.4770
     17 C14         4.1041   -1.6179   -1.2225 C.2       1 <0>         0.2900
     18 C15         3.1293   -2.0917   -2.2235 C.ar      1 <0>        -0.0258
     19 C16         1.8191   -1.6036   -2.2140 C.ar      1 <0>        -0.0710
     20 C17         0.9138   -2.0507   -3.1530 C.ar      1 <0>        -0.0996
     21 C18         1.2992   -2.9807   -4.1031 C.ar      1 <0>        -0.1414
     22 C19         2.5945   -3.4685   -4.1188 C.ar      1 <0>        -0.0976
     23 C20         3.5126   -3.0265   -3.1899 C.ar      1 <0>        -0.0654
     24 C21         0.3033   -3.4649   -5.1253 C.3       1 <0>         0.0419
     25 N3          0.3551   -2.5966   -6.3090 N.4       1 <0>        -0.3848
     26 C22        -0.0800   -1.2439   -5.9412 C.3       1 <0>        -0.0114
     27 C23         0.0491   -0.3158   -7.1509 C.3       1 <0>        -0.1386
     28 C24        -0.8290   -0.8443   -8.2888 C.3       1 <0>        -0.0160
     29 C25        -0.4153   -2.2825   -8.6139 C.3       1 <0>        -0.1490
     30 C26        -0.5271   -3.1377   -7.3499 C.3       1 <0>        -0.0020
     31 C27        -0.6467    0.0205   -9.5094 C.2       1 <0>         0.2706
     32 N4         -1.4043    1.0278   -9.8535 N.2       1 <0>        -0.4884
     33 C28        -0.9509    1.5678  -10.9929 C.2       1 <0>         0.2886
     34 N5          0.1110    0.8977  -11.3838 N.2       1 <0>        -0.2778
     35 H1          1.0385   -0.7685  -10.4317 H         1 <0>         0.4404
     36 N6          0.3275   -0.1087  -10.4285 N.pl3     1 <0>        -0.4753
     37 C29        -1.5482    2.7291  -11.6971 C.ar      1 <0>         0.1845
     38 C30        -0.9765    3.1871  -12.8824 C.ar      1 <0>        -0.1314
     39 C31        -1.5452    4.2711  -13.5282 C.ar      1 <0>        -0.0745
     40 C32        -2.6684    4.8622  -12.9668 C.ar      1 <0>        -0.1507
     41 C33        -3.1833    4.3558  -11.7880 C.ar      1 <0>         0.1034
     42 N7         -2.6253    3.3192  -11.1961 N.ar      1 <0>        -0.4471
     43 H2         -1.4649   -1.4746    1.5128 H         1 <0>         0.1279
     44 H3         -0.1522    0.5954    1.7240 H         1 <0>         0.1302
     45 H4          2.2316    0.6124    1.1162 H         1 <0>         0.1256
     46 H5          1.9782   -3.5353    0.0720 H         1 <0>         0.1212
     47 H6         -0.4044   -3.5343    0.6848 H         1 <0>         0.1271
     48 H7          4.3556   -1.1384    2.1661 H         1 <0>         0.1569
     49 H8          6.3476   -2.4362    0.8587 H         1 <0>         0.1571
     50 H9          7.6742   -0.1775   -2.0502 H         1 <0>         0.1602
     51 H10         9.1434    0.6483   -0.2969 H         1 <0>         0.1748
     52 H11         1.5169   -0.8786   -1.4728 H         1 <0>         0.1457
     53 H12        -0.0986   -1.6746   -3.1469 H         1 <0>         0.1391
     54 H13         2.8879   -4.1939   -4.8632 H         1 <0>         0.1387
     55 H14         4.5241   -3.4046   -3.2061 H         1 <0>         0.1421
     56 H15         0.5468   -4.4874   -5.4138 H         1 <0>         0.1411
     57 H16        -0.6990   -3.4369   -4.6977 H         1 <0>         0.1404
     58 H17        -1.1198   -1.2731   -5.6155 H         1 <0>         0.1372
     59 H18         0.5438   -0.8703   -5.1291 H         1 <0>         0.1382
     60 H19        -0.2761    0.6876   -6.8762 H         1 <0>         0.1247
     61 H20         1.0887   -0.2857   -7.4773 H         1 <0>         0.0902
     62 H21        -1.8744   -0.8266   -7.9809 H         1 <0>         0.1307
     63 H22        -1.0724   -2.6849   -9.3849 H         1 <0>         0.1239
     64 H23         0.6146   -2.2932   -8.9706 H         1 <0>         0.0885
     65 H24        -0.2335   -4.1624   -7.5778 H         1 <0>         0.1393
     66 H25        -1.5574   -3.1266   -6.9942 H         1 <0>         0.1380
     67 H26        -0.1018    2.7033  -13.2911 H         1 <0>         0.1437
     68 H27        -1.1241    4.6487  -14.4482 H         1 <0>         0.1456
     69 H28        -3.1354    5.7099  -13.4460 H         1 <0>         0.1451
     70 H29        -4.0573    4.8135  -11.3484 H         1 <0>         0.1668
     71 H30         1.3014   -2.5603   -6.6571 H         1 <0>         0.4227
@<TRIPOS>BOND
     1    1    6 ar
     2    1    2 ar
     3    1   43 1
     4    2    3 ar
     5    2   44 1
     6    3    4 ar
     7    3   45 1
     8    4    5 ar
     9    4    7 1
    10    5    6 ar
    11    5   46 1
    12    6   47 1
    13    7   17 1
    14    7    8 2
    15    8    9 1
    16    8   48 1
    17    9   14 1
    18    9   10 1
    19    9   49 1
    20   10   11 2
    21   10   16 1
    22   11   12 1
    23   11   50 1
    24   12   13 2
    25   12   51 1
    26   13   14 1
    27   14   15 2
    28   16   17 2
    29   17   18 1
    30   18   23 ar
    31   18   19 ar
    32   19   20 ar
    33   19   52 1
    34   20   21 ar
    35   20   53 1
    36   21   22 ar
    37   21   24 1
    38   22   23 ar
    39   22   54 1
    40   23   55 1
    41   24   25 1
    42   24   56 1
    43   24   57 1
    44   25   30 1
    45   25   26 1
    46   25   71 1
    47   26   27 1
    48   26   58 1
    49   26   59 1
    50   27   28 1
    51   27   60 1
    52   27   61 1
    53   28   29 1
    54   28   62 1
    55   28   31 1
    56   29   30 1
    57   29   63 1
    58   29   64 1
    59   30   65 1
    60   30   66 1
    61   31   32 2
    62   31   36 1
    63   32   33 1
    64   33   37 1
    65   33   34 2
    66   34   36 1
    67   35   36 1
    68   37   42 ar
    69   37   38 ar
    70   38   39 ar
    71   38   67 1
    72   39   40 ar
    73   39   68 1
    74   40   41 ar
    75   40   69 1
    76   41   42 ar
    77   41   70 1
@<TRIPOS>MOLECULE
CHEMBL575646
   53    56     0     0     0
SMALL
USER_CHARGES

@<TRIPOS>ATOM
      1 C1         -0.0165    1.3620    0.0095 C.ar      1 <0>        -0.1189
      2 C2          1.1697    2.0834    0.0021 C.ar      1 <0>        -0.0930
      3 C3          2.3856    1.4362   -0.0134 C.ar      1 <0>        -0.1109
      4 C4          2.4281    0.0456   -0.0212 C.ar      1 <0>         0.0987
      5 C5          1.2234   -0.6807   -0.0132 C.ar      1 <0>        -0.1172
      6 C6          0.0021   -0.0041    0.0020 C.ar      1 <0>        -0.1142
      7 C7          1.6036   -2.0953   -0.0245 C.2       1 <0>        -0.2380
      8 C8          2.9451   -2.1410   -0.0380 C.2       1 <0>         0.1041
      9 N1          3.4551   -0.8713   -0.0363 N.pl3     1 <0>        -0.5843
     10 H1          4.3995   -0.6501   -0.0442 H         1 <0>         0.4266
     11 C9          0.6664   -3.2754   -0.0210 C.3       1 <0>        -0.0554
     12 C10         0.2361   -3.5891   -1.4554 C.3       1 <0>         0.0436
     13 H2          1.1200   -3.7379   -2.0756 H         1 <0>         0.1528
     14 C11        -0.6144   -4.8610   -1.4661 C.3       1 <0>         0.0264
     15 O1         -0.9189   -5.2190   -2.8156 O.3       1 <0>        -0.3230
     16 C12        -1.6731   -6.3340   -3.0030 C.ar      1 <0>         0.0652
     17 C13        -2.0076   -6.7520   -4.2872 C.ar      1 <0>        -0.0954
     18 C14        -2.7783   -7.8946   -4.4278 C.ar      1 <0>        -0.0876
     19 C15        -3.1866   -8.5767   -3.2968 C.ar      1 <0>         0.0842
     20 N2         -2.8522   -8.1537   -2.0936 N.ar      1 <0>        -0.4416
     21 C16        -2.1155   -7.0747   -1.9169 C.ar      1 <0>         0.0215
     22 C17        -3.1674   -8.3878   -5.7976 C.3       1 <0>        -0.0750
     23 C18        -2.1011   -9.3565   -6.3128 C.3       1 <0>        -0.0757
     24 C19        -2.4902   -9.8498   -7.6826 C.ar      1 <0>        -0.0443
     25 C20        -3.2661  -10.9890   -7.8328 C.ar      1 <0>        -0.1703
     26 C21        -3.6032  -11.4114   -9.1048 C.ar      1 <0>         0.1045
     27 N3         -3.1956  -10.7447  -10.1671 N.ar      1 <0>        -0.4853
     28 C22        -2.4567   -9.6575  -10.0621 C.ar      1 <0>         0.1029
     29 C23        -2.0857   -9.1719   -8.8225 C.ar      1 <0>        -0.1725
     30 N4         -0.5518   -2.4687   -1.9863 N.4       1 <0>        -0.6361
     31 H3         -0.9613    1.8849    0.0259 H         1 <0>         0.1313
     32 H4          1.1388    3.1630    0.0081 H         1 <0>         0.1354
     33 H5          3.3028    2.0064   -0.0198 H         1 <0>         0.1296
     34 H6         -0.9246   -0.5587    0.0082 H         1 <0>         0.1147
     35 H7          3.5346   -3.0459   -0.0490 H         1 <0>         0.1791
     36 H8          1.1742   -4.1414    0.4036 H         1 <0>         0.1216
     37 H9         -0.2127   -3.0396    0.5787 H         1 <0>         0.0998
     38 H10        -0.0618   -5.6715   -0.9910 H         1 <0>         0.1134
     39 H11        -1.5405   -4.6834   -0.9195 H         1 <0>         0.0916
     40 H12        -1.6749   -6.1991   -5.1532 H         1 <0>         0.1455
     41 H13        -3.7879   -9.4679   -3.4001 H         1 <0>         0.1651
     42 H14        -1.8575   -6.7618   -0.9159 H         1 <0>         0.1571
     43 H15        -4.1272   -8.9013   -5.7398 H         1 <0>         0.0881
     44 H16        -3.2488   -7.5411   -6.4792 H         1 <0>         0.0832
     45 H17        -1.1413   -8.8431   -6.3706 H         1 <0>         0.0789
     46 H18        -2.0197  -10.2033   -5.6313 H         1 <0>         0.0824
     47 H19        -3.6024  -11.5397   -6.9667 H         1 <0>         0.1361
     48 H20        -4.2072  -12.2978   -9.2303 H         1 <0>         0.1583
     49 H21        -2.1414   -9.1382  -10.9550 H         1 <0>         0.1569
     50 H22        -1.4846   -8.2782   -8.7428 H         1 <0>         0.1329
     51 H23        -1.3700   -2.3311   -1.4122 H         1 <0>         0.4299
     52 H24         0.0090   -1.6300   -1.9793 H         1 <0>         0.4382
     53 H25        -0.8356   -2.6756   -2.9322 H         1 <0>         0.4391
@<TRIPOS>BOND
     1    1    6 ar
     2    1    2 ar
     3    1   31 1
     4    2    3 ar
     5    2   32 1
     6    3    4 ar
     7    3   33 1
     8    4    9 1
     9    4    5 ar
    10    5    6 ar
    11    5    7 1
    12    6   34 1
    13    7    8 2
    14    7   11 1
    15    8    9 1
    16    8   35 1
    17    9   10 1
    18   11   12 1
    19   11   36 1
    20   11   37 1
    21   12   13 1
    22   12   14 1
    23   12   30 1
    24   14   15 1
    25   14   38 1
    26   14   39 1
    27   15   16 1
    28   16   21 ar
    29   16   17 ar
    30   17   18 ar
    31   17   40 1
    32   18   19 ar
    33   18   22 1
    34   19   20 ar
    35   19   41 1
    36   20   21 ar
    37   21   42 1
    38   22   23 1
    39   22   43 1
    40   22   44 1
    41   23   24 1
    42   23   45 1
    43   23   46 1
    44   24   29 ar
    45   24   25 ar
    46   25   26 ar
    47   25   47 1
    48   26   27 ar
    49   26   48 1
    50   27   28 ar
    51   28   29 ar
    52   28   49 1
    53   29   50 1
    54   30   51 1
    55   30   52 1
    56   30   53 1
@<TRIPOS>MOLECULE
CHEMBL573334
   62    67     0     0     0
SMALL
USER_CHARGES

@<TRIPOS>ATOM
      1 C1         -0.0165    1.3620    0.0095 C.ar      1 <0>        -0.1191
      2 C2          1.1697    2.0834    0.0021 C.ar      1 <0>        -0.0932
      3 C3          2.3856    1.4362   -0.0134 C.ar      1 <0>        -0.1109
      4 C4          2.4281    0.0456   -0.0212 C.ar      1 <0>         0.0986
      5 C5          1.2234   -0.6807   -0.0132 C.ar      1 <0>        -0.1171
      6 C6          0.0021   -0.0041    0.0020 C.ar      1 <0>        -0.1141
      7 C7          1.6036   -2.0953   -0.0245 C.2       1 <0>        -0.2377
      8 C8          2.9451   -2.1410   -0.0380 C.2       1 <0>         0.1040
      9 N1          3.4551   -0.8713   -0.0363 N.pl3     1 <0>        -0.5844
     10 H1          4.3995   -0.6501   -0.0442 H         1 <0>         0.4265
     11 C9          0.6664   -3.2754   -0.0210 C.3       1 <0>        -0.0555
     12 C10         0.2361   -3.5891   -1.4554 C.3       1 <0>         0.0435
     13 H2          1.1200   -3.7379   -2.0756 H         1 <0>         0.1530
     14 C11        -0.6144   -4.8610   -1.4661 C.3       1 <0>         0.0263
     15 O1         -0.9189   -5.2190   -2.8156 O.3       1 <0>        -0.3227
     16 C12        -1.6731   -6.3340   -3.0030 C.ar      1 <0>         0.0694
     17 C13        -2.0063   -6.7503   -4.2858 C.ar      1 <0>        -0.0979
     18 C14        -2.7829   -7.9025   -4.4264 C.ar      1 <0>        -0.0348
     19 C15        -3.1908   -8.5858   -3.2820 C.ar      1 <0>         0.0864
     20 N2         -2.8519   -8.1548   -2.0846 N.ar      1 <0>        -0.4372
     21 C16        -2.1151   -7.0742   -1.9153 C.ar      1 <0>         0.0196
     22 C17        -3.1680   -8.3915   -5.7731 C.ar      1 <0>        -0.0826
     23 C18        -2.7522   -7.7062   -6.9137 C.ar      1 <0>        -0.0611
     24 C19        -3.1096   -8.1591   -8.1638 C.ar      1 <0>        -0.1357
     25 C20        -3.8906   -9.3070   -8.2996 C.ar      1 <0>         0.1665
     26 C21        -4.3012   -9.9855   -7.1577 C.ar      1 <0>        -0.1266
     27 C22        -3.9438   -9.5432   -5.9064 C.ar      1 <0>        -0.0328
     28 C23        -5.1170  -11.1654   -7.6346 C.3       1 <0>        -0.0323
     29 C24        -5.0956  -11.0414   -9.1432 C.2       1 <0>         0.5374
     30 O2         -5.6318  -11.7876   -9.9349 O.2       1 <0>        -0.4745
     31 N3         -4.3713   -9.9496   -9.4405 N.am      1 <0>        -0.6587
     32 C25        -6.5295  -11.0745   -7.1172 C.ar      1 <0>         0.1466
     33 C26        -7.4657  -10.3334   -7.8137 C.ar      1 <0>        -0.1587
     34 C27        -8.7623  -10.2562   -7.3292 C.ar      1 <0>        -0.0669
     35 C28        -9.0701  -10.9303   -6.1571 C.ar      1 <0>        -0.1664
     36 C29        -8.0813  -11.6514   -5.5154 C.ar      1 <0>         0.1071
     37 N4         -6.8593  -11.7071   -6.0084 N.ar      1 <0>        -0.4733
     38 N5         -0.5518   -2.4687   -1.9863 N.4       1 <0>        -0.6363
     39 H3         -0.9613    1.8849    0.0259 H         1 <0>         0.1312
     40 H4          1.1388    3.1630    0.0081 H         1 <0>         0.1353
     41 H5          3.3028    2.0064   -0.0198 H         1 <0>         0.1294
     42 H6         -0.9246   -0.5587    0.0082 H         1 <0>         0.1148
     43 H7          3.5346   -3.0459   -0.0490 H         1 <0>         0.1792
     44 H8          1.1742   -4.1414    0.4036 H         1 <0>         0.1218
     45 H9         -0.2127   -3.0396    0.5787 H         1 <0>         0.0998
     46 H10        -0.0618   -5.6715   -0.9910 H         1 <0>         0.1140
     47 H11        -1.5405   -4.6834   -0.9195 H         1 <0>         0.0919
     48 H12        -1.6739   -6.1971   -5.1517 H         1 <0>         0.1482
     49 H13        -3.7916   -9.4781   -3.3784 H         1 <0>         0.1672
     50 H14        -1.8556   -6.7582   -0.9157 H         1 <0>         0.1577
     51 H15        -2.1477   -6.8166   -6.8164 H         1 <0>         0.1348
     52 H16        -2.7842   -7.6231   -9.0431 H         1 <0>         0.1365
     53 H17        -4.2668  -10.0831   -5.0285 H         1 <0>         0.1384
     54 H18        -4.6541  -12.1013   -7.3217 H         1 <0>         0.1471
     55 H19        -4.2017   -9.6435  -10.3451 H         1 <0>         0.4204
     56 H20        -7.1905   -9.8208   -8.7235 H         1 <0>         0.1268
     57 H21        -9.5147   -9.6844   -7.8520 H         1 <0>         0.1393
     58 H22       -10.0700  -10.8919   -5.7506 H         1 <0>         0.1411
     59 H23        -8.3130  -12.1791   -4.6021 H         1 <0>         0.1634
     60 H24         0.0090   -1.6300   -1.9793 H         1 <0>         0.4381
     61 H25        -0.8356   -2.6756   -2.9322 H         1 <0>         0.4391
     62 H26        -1.3700   -2.3311   -1.4122 H         1 <0>         0.4299
@<TRIPOS>BOND
     1    1    6 ar
     2    1    2 ar
     3    1   39 1
     4    2    3 ar
     5    2   40 1
     6    3    4 ar
     7    3   41 1
     8    4    9 1
     9    4    5 ar
    10    5    6 ar
    11    5    7 1
    12    6   42 1
    13    7    8 2
    14    7   11 1
    15    8    9 1
    16    8   43 1
    17    9   10 1
    18   11   12 1
    19   11   44 1
    20   11   45 1
    21   12   13 1
    22   12   14 1
    23   12   38 1
    24   14   15 1
    25   14   46 1
    26   14   47 1
    27   15   16 1
    28   16   21 ar
    29   16   17 ar
    30   17   18 ar
    31   17   48 1
    32   18   19 ar
    33   18   22 1
    34   19   20 ar
    35   19   49 1
    36   20   21 ar
    37   21   50 1
    38   22   27 ar
    39   22   23 ar
    40   23   24 ar
    41   23   51 1
    42   24   25 ar
    43   24   52 1
    44   25   31 1
    45   25   26 ar
    46   26   27 ar
    47   26   28 1
    48   27   53 1
    49   28   29 1
    50   28   32 1
    51   28   54 1
    52   29   30 2
    53   29   31 am
    54   31   55 1
    55   32   37 ar
    56   32   33 ar
    57   33   34 ar
    58   33   56 1
    59   34   35 ar
    60   34   57 1
    61   35   36 ar
    62   35   58 1
    63   36   37 ar
    64   36   59 1
    65   38   60 1
    66   38   61 1
    67   38   62 1
@<TRIPOS>MOLECULE
CHEMBL573334
   63    68     0     0     0
SMALL
USER_CHARGES

@<TRIPOS>ATOM
      1 C1         -0.0165    1.3620    0.0095 C.ar      1 <0>        -0.1176
      2 C2          1.1697    2.0834    0.0021 C.ar      1 <0>        -0.0926
      3 C3          2.3856    1.4362   -0.0134 C.ar      1 <0>        -0.1094
      4 C4          2.4281    0.0456   -0.0212 C.ar      1 <0>         0.0987
      5 C5          1.2234   -0.6807   -0.0132 C.ar      1 <0>        -0.1174
      6 C6          0.0021   -0.0041    0.0020 C.ar      1 <0>        -0.1162
      7 C7          1.6036   -2.0953   -0.0245 C.2       1 <0>        -0.2416
      8 C8          2.9451   -2.1410   -0.0380 C.2       1 <0>         0.1060
      9 N1          3.4551   -0.8713   -0.0363 N.pl3     1 <0>        -0.5834
     10 H1          4.3995   -0.6501   -0.0442 H         1 <0>         0.4275
     11 C9          0.6664   -3.2754   -0.0210 C.3       1 <0>        -0.0546
     12 C10         0.2361   -3.5891   -1.4554 C.3       1 <0>         0.0434
     13 H2          1.1200   -3.7379   -2.0756 H         1 <0>         0.1538
     14 C11        -0.6144   -4.8610   -1.4661 C.3       1 <0>         0.0257
     15 O1         -0.9189   -5.2190   -2.8156 O.3       1 <0>        -0.3207
     16 C12        -1.6731   -6.3340   -3.0030 C.ar      1 <0>         0.0762
     17 C13        -2.0063   -6.7503   -4.2858 C.ar      1 <0>        -0.0924
     18 C14        -2.7829   -7.9025   -4.4264 C.ar      1 <0>        -0.0518
     19 C15        -3.1908   -8.5858   -3.2820 C.ar      1 <0>         0.0860
     20 N2         -2.8519   -8.1548   -2.0846 N.ar      1 <0>        -0.4367
     21 C16        -2.1151   -7.0742   -1.9153 C.ar      1 <0>         0.0298
     22 C17        -3.1680   -8.3915   -5.7731 C.ar      1 <0>        -0.0625
     23 C18        -2.7522   -7.7062   -6.9137 C.ar      1 <0>        -0.0485
     24 C19        -3.1096   -8.1591   -8.1638 C.ar      1 <0>        -0.1227
     25 C20        -3.8906   -9.3070   -8.2996 C.ar      1 <0>         0.1677
     26 C21        -4.3012   -9.9855   -7.1577 C.ar      1 <0>        -0.1568
     27 C22        -3.9438   -9.5432   -5.9064 C.ar      1 <0>        -0.0378
     28 C23        -5.1170  -11.1654   -7.6346 C.3       1 <0>        -0.0592
     29 C24        -5.0956  -11.0414   -9.1432 C.2       1 <0>         0.5384
     30 O2         -5.6318  -11.7876   -9.9349 O.2       1 <0>        -0.4637
     31 N3         -4.3713   -9.9496   -9.4405 N.am      1 <0>        -0.6478
     32 C25        -6.5295  -11.0745   -7.1172 C.ar      1 <0>         0.1714
     33 C26        -7.1329   -9.8371   -6.9923 C.ar      1 <0>        -0.1114
     34 C27        -8.4326   -9.7645   -6.5154 C.ar      1 <0>         0.0137
     35 C28        -9.0796  -10.9444   -6.1804 C.ar      1 <0>        -0.1195
     36 C29        -8.4122  -12.1448   -6.3320 C.ar      1 <0>         0.1448
     37 N4         -7.1773  -12.1765   -6.7940 N.ar      1 <0>        -0.4355
     38 N5         -0.5518   -2.4687   -1.9863 N.4       1 <0>        -0.6364
     39 H3         -0.9613    1.8849    0.0259 H         1 <0>         0.1315
     40 H4          1.1388    3.1630    0.0081 H         1 <0>         0.1364
     41 H5          3.3028    2.0064   -0.0198 H         1 <0>         0.1306
     42 H6         -0.9246   -0.5587    0.0082 H         1 <0>         0.1138
     43 H7          3.5346   -3.0459   -0.0490 H         1 <0>         0.1789
     44 H8          1.1742   -4.1414    0.4036 H         1 <0>         0.1218
     45 H9         -0.2127   -3.0396    0.5787 H         1 <0>         0.1000
     46 H10        -0.0618   -5.6715   -0.9910 H         1 <0>         0.1157
     47 H11        -1.5405   -4.6834   -0.9195 H         1 <0>         0.0937
     48 H12        -1.6739   -6.1971   -5.1517 H         1 <0>         0.1507
     49 H13        -3.7916   -9.4781   -3.3784 H         1 <0>         0.1618
     50 H14        -1.8556   -6.7582   -0.9157 H         1 <0>         0.1624
     51 H15        -2.1477   -6.8166   -6.8164 H         1 <0>         0.1439
     52 H16        -2.7842   -7.6231   -9.0431 H         1 <0>         0.1457
     53 H17        -4.2668  -10.0831   -5.0285 H         1 <0>         0.1384
     54 H18        -4.6541  -12.1013   -7.3217 H         1 <0>         0.1604
     55 H19        -4.2017   -9.6435  -10.3451 H         1 <0>         0.4324
     56 H20        -6.5986   -8.9383   -7.2625 H         1 <0>         0.1812
     57 H21        -8.9292   -8.8116   -6.4070 H         1 <0>         0.1826
     58 H22       -10.0922  -10.9253   -5.8055 H         1 <0>         0.1927
     59 H23        -8.9091  -13.0682   -6.0734 H         1 <0>         0.2182
     60 H24         0.0090   -1.6300   -1.9793 H         1 <0>         0.4403
     61 H25        -0.8356   -2.6756   -2.9322 H         1 <0>         0.4377
     62 H26        -1.3700   -2.3311   -1.4122 H         1 <0>         0.4301
     63 H27        -6.7325  -13.0326   -6.8947 H         1 <0>         0.4524
@<TRIPOS>BOND
     1    1    6 ar
     2    1    2 ar
     3    1   39 1
     4    2    3 ar
     5    2   40 1
     6    3    4 ar
     7    3   41 1
     8    4    9 1
     9    4    5 ar
    10    5    6 ar
    11    5    7 1
    12    6   42 1
    13    7    8 2
    14    7   11 1
    15    8    9 1
    16    8   43 1
    17    9   10 1
    18   11   12 1
    19   11   44 1
    20   11   45 1
    21   12   13 1
    22   12   14 1
    23   12   38 1
    24   14   15 1
    25   14   46 1
    26   14   47 1
    27   15   16 1
    28   16   21 ar
    29   16   17 ar
    30   17   18 ar
    31   17   48 1
    32   18   19 ar
    33   18   22 1
    34   19   20 ar
    35   19   49 1
    36   20   21 ar
    37   21   50 1
    38   22   27 ar
    39   22   23 ar
    40   23   24 ar
    41   23   51 1
    42   24   25 ar
    43   24   52 1
    44   25   31 1
    45   25   26 ar
    46   26   27 ar
    47   26   28 1
    48   27   53 1
    49   28   29 1
    50   28   32 1
    51   28   54 1
    52   29   30 2
    53   29   31 am
    54   31   55 1
    55   32   37 ar
    56   32   33 ar
    57   33   34 ar
    58   33   56 1
    59   34   35 ar
    60   34   57 1
    61   35   36 ar
    62   35   58 1
    63   36   37 ar
    64   36   59 1
    65   37   63 1
    66   38   60 1
    67   38   61 1
    68   38   62 1
@<TRIPOS>MOLECULE
CHEMBL573334
   62    67     0     0     0
SMALL
USER_CHARGES

@<TRIPOS>ATOM
      1 C1         -0.0165    1.3620    0.0095 C.ar      1 <0>        -0.1190
      2 C2          1.1697    2.0834    0.0021 C.ar      1 <0>        -0.0931
      3 C3          2.3856    1.4362   -0.0134 C.ar      1 <0>        -0.1110
      4 C4          2.4281    0.0456   -0.0212 C.ar      1 <0>         0.0986
      5 C5          1.2234   -0.6807   -0.0132 C.ar      1 <0>        -0.1171
      6 C6          0.0021   -0.0041    0.0020 C.ar      1 <0>        -0.1141
      7 C7          1.6036   -2.0953   -0.0245 C.2       1 <0>        -0.2376
      8 C8          2.9451   -2.1410   -0.0380 C.2       1 <0>         0.1039
      9 N1          3.4551   -0.8713   -0.0363 N.pl3     1 <0>        -0.5844
     10 H1          4.3995   -0.6501   -0.0442 H         1 <0>         0.4265
     11 C9          0.6664   -3.2754   -0.0210 C.3       1 <0>        -0.0556
     12 C10         0.2361   -3.5891   -1.4554 C.3       1 <0>         0.0435
     13 H2          1.1200   -3.7379   -2.0756 H         1 <0>         0.1528
     14 C11        -0.6144   -4.8610   -1.4661 C.3       1 <0>         0.0263
     15 O1         -0.9189   -5.2190   -2.8156 O.3       1 <0>        -0.3227
     16 C12        -1.6731   -6.3340   -3.0030 C.ar      1 <0>         0.0694
     17 C13        -2.0063   -6.7503   -4.2858 C.ar      1 <0>        -0.0979
     18 C14        -2.7829   -7.9025   -4.4264 C.ar      1 <0>        -0.0348
     19 C15        -3.1908   -8.5858   -3.2820 C.ar      1 <0>         0.0864
     20 N2         -2.8519   -8.1548   -2.0846 N.ar      1 <0>        -0.4372
     21 C16        -2.1151   -7.0742   -1.9153 C.ar      1 <0>         0.0196
     22 C17        -3.1680   -8.3915   -5.7731 C.ar      1 <0>        -0.0826
     23 C18        -2.7522   -7.7062   -6.9137 C.ar      1 <0>        -0.0611
     24 C19        -3.1096   -8.1591   -8.1638 C.ar      1 <0>        -0.1358
     25 C20        -3.8906   -9.3070   -8.2996 C.ar      1 <0>         0.1665
     26 C21        -4.3012   -9.9855   -7.1577 C.ar      1 <0>        -0.1267
     27 C22        -3.9438   -9.5432   -5.9064 C.ar      1 <0>        -0.0328
     28 C23        -5.1170  -11.1654   -7.6346 C.3       1 <0>        -0.0320
     29 C24        -5.0956  -11.0414   -9.1432 C.2       1 <0>         0.5374
     30 O2         -5.6318  -11.7876   -9.9349 O.2       1 <0>        -0.4745
     31 N3         -4.3713   -9.9496   -9.4405 N.am      1 <0>        -0.6587
     32 C25        -4.4770  -12.4593   -7.2020 C.ar      1 <0>         0.1461
     33 C26        -3.4733  -13.0161   -7.9723 C.ar      1 <0>        -0.1588
     34 C27        -2.8912  -14.2066   -7.5654 C.ar      1 <0>        -0.0667
     35 C28        -3.3423  -14.7953   -6.3937 C.ar      1 <0>        -0.1661
     36 C29        -4.3499  -14.1800   -5.6756 C.ar      1 <0>         0.1071
     37 N4         -4.8771  -13.0444   -6.0902 N.ar      1 <0>        -0.4736
     38 N5         -0.5518   -2.4687   -1.9863 N.4       1 <0>        -0.6362
     39 H3         -0.9613    1.8849    0.0259 H         1 <0>         0.1313
     40 H4          1.1388    3.1630    0.0081 H         1 <0>         0.1353
     41 H5          3.3028    2.0064   -0.0198 H         1 <0>         0.1294
     42 H6         -0.9246   -0.5587    0.0082 H         1 <0>         0.1149
     43 H7          3.5346   -3.0459   -0.0490 H         1 <0>         0.1791
     44 H8          1.1742   -4.1414    0.4036 H         1 <0>         0.1217
     45 H9         -0.2127   -3.0396    0.5787 H         1 <0>         0.0999
     46 H10        -0.0618   -5.6715   -0.9910 H         1 <0>         0.1138
     47 H11        -1.5405   -4.6834   -0.9195 H         1 <0>         0.0921
     48 H12        -1.6739   -6.1971   -5.1517 H         1 <0>         0.1482
     49 H13        -3.7916   -9.4781   -3.3784 H         1 <0>         0.1671
     50 H14        -1.8556   -6.7582   -0.9157 H         1 <0>         0.1577
     51 H15        -2.1477   -6.8166   -6.8164 H         1 <0>         0.1348
     52 H16        -2.7842   -7.6231   -9.0431 H         1 <0>         0.1365
     53 H17        -4.2668  -10.0831   -5.0285 H         1 <0>         0.1383
     54 H18        -6.1386  -11.0996   -7.2604 H         1 <0>         0.1471
     55 H19        -4.2017   -9.6435  -10.3451 H         1 <0>         0.4204
     56 H20        -3.1471  -12.5299   -8.8798 H         1 <0>         0.1268
     57 H21        -2.1053  -14.6649   -8.1474 H         1 <0>         0.1394
     58 H22        -2.9118  -15.7230   -6.0469 H         1 <0>         0.1411
     59 H23        -4.7068  -14.6321   -4.7620 H         1 <0>         0.1635
     60 H24         0.0090   -1.6300   -1.9793 H         1 <0>         0.4380
     61 H25        -0.8356   -2.6756   -2.9322 H         1 <0>         0.4392
     62 H26        -1.3700   -2.3311   -1.4122 H         1 <0>         0.4300
@<TRIPOS>BOND
     1    1    6 ar
     2    1    2 ar
     3    1   39 1
     4    2    3 ar
     5    2   40 1
     6    3    4 ar
     7    3   41 1
     8    4    9 1
     9    4    5 ar
    10    5    6 ar
    11    5    7 1
    12    6   42 1
    13    7    8 2
    14    7   11 1
    15    8    9 1
    16    8   43 1
    17    9   10 1
    18   11   12 1
    19   11   44 1
    20   11   45 1
    21   12   13 1
    22   12   14 1
    23   12   38 1
    24   14   15 1
    25   14   46 1
    26   14   47 1
    27   15   16 1
    28   16   21 ar
    29   16   17 ar
    30   17   18 ar
    31   17   48 1
    32   18   19 ar
    33   18   22 1
    34   19   20 ar
    35   19   49 1
    36   20   21 ar
    37   21   50 1
    38   22   27 ar
    39   22   23 ar
    40   23   24 ar
    41   23   51 1
    42   24   25 ar
    43   24   52 1
    44   25   31 1
    45   25   26 ar
    46   26   27 ar
    47   26   28 1
    48   27   53 1
    49   28   29 1
    50   28   32 1
    51   28   54 1
    52   29   30 2
    53   29   31 am
    54   31   55 1
    55   32   37 ar
    56   32   33 ar
    57   33   34 ar
    58   33   56 1
    59   34   35 ar
    60   34   57 1
    61   35   36 ar
    62   35   58 1
    63   36   37 ar
    64   36   59 1
    65   38   60 1
    66   38   61 1
    67   38   62 1
@<TRIPOS>MOLECULE
CHEMBL573334
   63    68     0     0     0
SMALL
USER_CHARGES

@<TRIPOS>ATOM
      1 C1         -0.0165    1.3620    0.0095 C.ar      1 <0>        -0.1173
      2 C2          1.1697    2.0834    0.0021 C.ar      1 <0>        -0.0923
      3 C3          2.3856    1.4362   -0.0134 C.ar      1 <0>        -0.1096
      4 C4          2.4281    0.0456   -0.0212 C.ar      1 <0>         0.0987
      5 C5          1.2234   -0.6807   -0.0132 C.ar      1 <0>        -0.1175
      6 C6          0.0021   -0.0041    0.0020 C.ar      1 <0>        -0.1161
      7 C7          1.6036   -2.0953   -0.0245 C.2       1 <0>        -0.2413
      8 C8          2.9451   -2.1410   -0.0380 C.2       1 <0>         0.1055
      9 N1          3.4551   -0.8713   -0.0363 N.pl3     1 <0>        -0.5835
     10 H1          4.3995   -0.6501   -0.0442 H         1 <0>         0.4273
     11 C9          0.6664   -3.2754   -0.0210 C.3       1 <0>        -0.0548
     12 C10         0.2361   -3.5891   -1.4554 C.3       1 <0>         0.0436
     13 H2          1.1200   -3.7379   -2.0756 H         1 <0>         0.1535
     14 C11        -0.6144   -4.8610   -1.4661 C.3       1 <0>         0.0255
     15 O1         -0.9189   -5.2190   -2.8156 O.3       1 <0>        -0.3207
     16 C12        -1.6731   -6.3340   -3.0030 C.ar      1 <0>         0.0763
     17 C13        -2.0063   -6.7503   -4.2858 C.ar      1 <0>        -0.0924
     18 C14        -2.7829   -7.9025   -4.4264 C.ar      1 <0>        -0.0518
     19 C15        -3.1908   -8.5858   -3.2820 C.ar      1 <0>         0.0860
     20 N2         -2.8519   -8.1548   -2.0846 N.ar      1 <0>        -0.4367
     21 C16        -2.1151   -7.0742   -1.9153 C.ar      1 <0>         0.0297
     22 C17        -3.1680   -8.3915   -5.7731 C.ar      1 <0>        -0.0623
     23 C18        -2.7522   -7.7062   -6.9137 C.ar      1 <0>        -0.0487
     24 C19        -3.1096   -8.1591   -8.1638 C.ar      1 <0>        -0.1225
     25 C20        -3.8906   -9.3070   -8.2996 C.ar      1 <0>         0.1677
     26 C21        -4.3012   -9.9855   -7.1577 C.ar      1 <0>        -0.1566
     27 C22        -3.9438   -9.5432   -5.9064 C.ar      1 <0>        -0.0382
     28 C23        -5.1170  -11.1654   -7.6346 C.3       1 <0>        -0.0589
     29 C24        -5.0956  -11.0414   -9.1432 C.2       1 <0>         0.5384
     30 O2         -5.6318  -11.7876   -9.9349 O.2       1 <0>        -0.4637
     31 N3         -4.3713   -9.9496   -9.4405 N.am      1 <0>        -0.6478
     32 C25        -4.4770  -12.4593   -7.2020 C.ar      1 <0>         0.1709
     33 C26        -3.0991  -12.5554   -7.1481 C.ar      1 <0>        -0.1115
     34 C27        -2.5204  -13.7501   -6.7488 C.ar      1 <0>         0.0141
     35 C28        -3.3530  -14.8084   -6.4171 C.ar      1 <0>        -0.1194
     36 C29        -4.7220  -14.6381   -6.4951 C.ar      1 <0>         0.1447
     37 N4         -5.2379  -13.4850   -6.8741 N.ar      1 <0>        -0.4356
     38 N5         -0.5518   -2.4687   -1.9863 N.4       1 <0>        -0.6366
     39 H3         -0.9613    1.8849    0.0259 H         1 <0>         0.1317
     40 H4          1.1388    3.1630    0.0081 H         1 <0>         0.1364
     41 H5          3.3028    2.0064   -0.0198 H         1 <0>         0.1305
     42 H6         -0.9246   -0.5587    0.0082 H         1 <0>         0.1140
     43 H7          3.5346   -3.0459   -0.0490 H         1 <0>         0.1787
     44 H8          1.1742   -4.1414    0.4036 H         1 <0>         0.1216
     45 H9         -0.2127   -3.0396    0.5787 H         1 <0>         0.1001
     46 H10        -0.0618   -5.6715   -0.9910 H         1 <0>         0.1155
     47 H11        -1.5405   -4.6834   -0.9195 H         1 <0>         0.0939
     48 H12        -1.6739   -6.1971   -5.1517 H         1 <0>         0.1507
     49 H13        -3.7916   -9.4781   -3.3784 H         1 <0>         0.1618
     50 H14        -1.8556   -6.7582   -0.9157 H         1 <0>         0.1624
     51 H15        -2.1477   -6.8166   -6.8164 H         1 <0>         0.1439
     52 H16        -2.7842   -7.6231   -9.0431 H         1 <0>         0.1457
     53 H17        -4.2668  -10.0831   -5.0285 H         1 <0>         0.1383
     54 H18        -6.1386  -11.0996   -7.2604 H         1 <0>         0.1603
     55 H19        -4.2017   -9.6435  -10.3451 H         1 <0>         0.4324
     56 H20        -2.4812  -11.7105   -7.4140 H         1 <0>         0.1813
     57 H21        -1.4467  -13.8544   -6.6975 H         1 <0>         0.1829
     58 H22        -2.9366  -15.7538   -6.1022 H         1 <0>         0.1928
     59 H23        -5.3772  -15.4574   -6.2385 H         1 <0>         0.2181
     60 H24         0.0090   -1.6300   -1.9793 H         1 <0>         0.4403
     61 H25        -0.8356   -2.6756   -2.9322 H         1 <0>         0.4378
     62 H26        -1.3700   -2.3311   -1.4122 H         1 <0>         0.4304
     63 H27        -6.2023  -13.3903   -6.9166 H         1 <0>         0.4523
@<TRIPOS>BOND
     1    1    6 ar
     2    1    2 ar
     3    1   39 1
     4    2    3 ar
     5    2   40 1
     6    3    4 ar
     7    3   41 1
     8    4    9 1
     9    4    5 ar
    10    5    6 ar
    11    5    7 1
    12    6   42 1
    13    7    8 2
    14    7   11 1
    15    8    9 1
    16    8   43 1
    17    9   10 1
    18   11   12 1
    19   11   44 1
    20   11   45 1
    21   12   13 1
    22   12   14 1
    23   12   38 1
    24   14   15 1
    25   14   46 1
    26   14   47 1
    27   15   16 1
    28   16   21 ar
    29   16   17 ar
    30   17   18 ar
    31   17   48 1
    32   18   19 ar
    33   18   22 1
    34   19   20 ar
    35   19   49 1
    36   20   21 ar
    37   21   50 1
    38   22   27 ar
    39   22   23 ar
    40   23   24 ar
    41   23   51 1
    42   24   25 ar
    43   24   52 1
    44   25   31 1
    45   25   26 ar
    46   26   27 ar
    47   26   28 1
    48   27   53 1
    49   28   29 1
    50   28   32 1
    51   28   54 1
    52   29   30 2
    53   29   31 am
    54   31   55 1
    55   32   37 ar
    56   32   33 ar
    57   33   34 ar
    58   33   56 1
    59   34   35 ar
    60   34   57 1
    61   35   36 ar
    62   35   58 1
    63   36   37 ar
    64   36   59 1
    65   37   63 1
    66   38   60 1
    67   38   61 1
    68   38   62 1
@<TRIPOS>MOLECULE
CHEMBL512672
   45    48     0     0     0
SMALL
USER_CHARGES

@<TRIPOS>ATOM
      1 C1         -0.0167    1.3781    0.0096 C.ar      1 <0>        -0.0952
      2 C2          1.1709    2.0855    0.0021 C.ar      1 <0>        -0.1096
      3 C3          2.3773    1.4107   -0.0130 C.ar      1 <0>        -0.0945
      4 C4          2.3960    0.0285   -0.0201 C.ar      1 <0>        -0.1231
      5 C5          1.2084   -0.6789   -0.0117 C.ar      1 <0>        -0.1106
      6 C6          0.0021   -0.0041    0.0020 C.ar      1 <0>        -0.1098
      7 C7          3.7112   -0.7071   -0.0376 C.3       1 <0>         0.1717
      8 C8          4.0191   -1.1676   -1.4638 C.3       1 <0>        -0.0183
      9 N1          5.2387   -1.9864   -1.4614 N.4       1 <0>        -0.6345
     10 N2          3.6301   -1.8734    0.8453 N.am      1 <0>        -0.7336
     11 C9          4.7514   -2.3850    1.3907 C.2       1 <0>         0.6122
     12 O1          5.8312   -1.8781    1.1497 O.2       1 <0>        -0.5386
     13 C10         4.6703   -3.5524    2.2745 C.2       1 <0>        -0.3097
     14 C11         5.6903   -4.2157    2.9295 C.2       1 <0>        -0.0196
     15 C12         5.3079   -5.2980    3.7054 C.2       1 <0>        -0.1120
     16 C13         3.9686   -5.6196    3.7607 C.2       1 <0>        -0.1781
     17 S1          3.2305   -4.4709    2.7827 S.3       1 <0>         0.2457
     18 C14         6.3115   -6.0886    4.4552 C.ar      1 <0>         0.0468
     19 C15         7.4637   -6.5681    3.8311 C.ar      1 <0>        -0.1885
     20 C16         8.3754   -7.3018    4.5676 C.ar      1 <0>         0.1425
     21 N3          8.1854   -7.5609    5.8450 N.ar      1 <0>        -0.4929
     22 C17         7.1106   -7.1336    6.4964 C.ar      1 <0>         0.2905
     23 C18         6.1371   -6.3759    5.8215 C.ar      1 <0>        -0.1392
     24 C19         5.1045   -6.0622    6.8076 C.2       1 <0>        -0.2038
     25 C20         5.4932   -6.6152    7.9683 C.2       1 <0>         0.0757
     26 N4          6.6863   -7.2654    7.7970 N.pl3     1 <0>        -0.5799
     27 H1          7.1661   -7.7404    8.4934 H         1 <0>         0.4246
     28 H2         -0.9591    1.9053    0.0259 H         1 <0>         0.1331
     29 H3          1.1563    3.1654    0.0076 H         1 <0>         0.1340
     30 H4          3.3051    1.9634   -0.0196 H         1 <0>         0.1304
     31 H5          1.2231   -1.7588   -0.0176 H         1 <0>         0.1223
     32 H6         -0.9258   -0.5567    0.0082 H         1 <0>         0.1331
     33 H7          4.5034   -0.0434    0.3089 H         1 <0>         0.1266
     34 H8          3.1853   -1.7587   -1.8427 H         1 <0>         0.1393
     35 H9          4.1672   -0.2970   -2.1027 H         1 <0>         0.1517
     36 H10         5.1016   -2.7923   -0.8700 H         1 <0>         0.4269
     37 H11         5.4418   -2.2901   -2.4020 H         1 <0>         0.4372
     38 H12         2.7694   -2.2773    1.0375 H         1 <0>         0.4152
     39 H13         6.7223   -3.9096    2.8417 H         1 <0>         0.1559
     40 H14         3.5008   -6.4230    4.3103 H         1 <0>         0.1994
     41 H15         7.6413   -6.3688    2.7846 H         1 <0>         0.1373
     42 H16         9.2664   -7.6724    4.0827 H         1 <0>         0.1655
     43 H17         4.2020   -5.4944    6.6358 H         1 <0>         0.1484
     44 H18         4.9429   -6.5623    8.8960 H         1 <0>         0.1829
     45 H19         6.0105   -1.4392   -1.1107 H         1 <0>         0.4426
@<TRIPOS>BOND
     1    1    6 ar
     2    1    2 ar
     3    1   28 1
     4    2    3 ar
     5    2   29 1
     6    3    4 ar
     7    3   30 1
     8    4    5 ar
     9    4    7 1
    10    5    6 ar
    11    5   31 1
    12    6   32 1
    13    7    8 1
    14    7   10 1
    15    7   33 1
    16    8    9 1
    17    8   34 1
    18    8   35 1
    19    9   36 1
    20    9   37 1
    21    9   45 1
    22   10   11 am
    23   10   38 1
    24   11   12 2
    25   11   13 1
    26   13   17 1
    27   13   14 2
    28   14   15 1
    29   14   39 1
    30   15   16 2
    31   15   18 1
    32   16   17 1
    33   16   40 1
    34   18   23 ar
    35   18   19 ar
    36   19   20 ar
    37   19   41 1
    38   20   21 ar
    39   20   42 1
    40   21   22 ar
    41   22   26 1
    42   22   23 ar
    43   23   24 1
    44   24   25 2
    45   24   43 1
    46   25   26 1
    47   25   44 1
    48   26   27 1
@<TRIPOS>MOLECULE
CHEMBL512672
   45    48     0     0     0
SMALL
USER_CHARGES

@<TRIPOS>ATOM
      1 C1         -0.0167    1.3781    0.0096 C.ar      1 <0>        -0.0951
      2 C2          1.1709    2.0855    0.0021 C.ar      1 <0>        -0.1096
      3 C3          2.3773    1.4107   -0.0130 C.ar      1 <0>        -0.0945
      4 C4          2.3960    0.0285   -0.0201 C.ar      1 <0>        -0.1231
      5 C5          1.2084   -0.6789   -0.0117 C.ar      1 <0>        -0.1106
      6 C6          0.0021   -0.0041    0.0020 C.ar      1 <0>        -0.1098
      7 C7          3.7112   -0.7071   -0.0376 C.3       1 <0>         0.1718
      8 C8          4.0489   -1.1818    1.3772 C.3       1 <0>        -0.0185
      9 N1          5.2681   -2.0004    1.3411 N.4       1 <0>        -0.6345
     10 N2          3.6115   -1.8645   -0.9302 N.am      1 <0>        -0.7335
     11 C9          4.7211   -2.3705   -1.5040 C.2       1 <0>         0.6122
     12 O1          5.8058   -1.8660   -1.2806 O.2       1 <0>        -0.5386
     13 C10         4.6213   -3.5291   -2.3976 C.2       1 <0>        -0.3097
     14 C11         5.6287   -4.1927   -3.0715 C.2       1 <0>        -0.0200
     15 C12         5.2298   -5.2657   -3.8518 C.2       1 <0>        -0.1118
     16 C13         3.8879   -5.5789   -3.8924 C.2       1 <0>        -0.1781
     17 S1          3.1713   -4.4433   -2.8836 S.3       1 <0>         0.2458
     18 C14         6.2186   -6.0551   -4.6222 C.ar      1 <0>         0.0458
     19 C15         7.1584   -5.4298   -5.4424 C.ar      1 <0>        -0.1869
     20 C16         8.0640   -6.2039   -6.1441 C.ar      1 <0>         0.1437
     21 N3          8.0638   -7.5183   -6.0591 N.ar      1 <0>        -0.4931
     22 C17         7.1964   -8.1731   -5.2970 C.ar      1 <0>         0.2897
     23 C18         6.2449   -7.4599   -4.5463 C.ar      1 <0>        -0.1395
     24 C19         5.4601   -8.4587   -3.8229 C.2       1 <0>        -0.2046
     25 C20         5.9583   -9.6611   -4.1549 C.2       1 <0>         0.0750
     26 N4          6.9914   -9.5077   -5.0407 N.pl3     1 <0>        -0.5801
     27 H1          7.5087  -10.2336   -5.4232 H         1 <0>         0.4245
     28 H2         -0.9591    1.9053    0.0259 H         1 <0>         0.1331
     29 H3          1.1563    3.1654    0.0076 H         1 <0>         0.1341
     30 H4          3.3051    1.9634   -0.0196 H         1 <0>         0.1304
     31 H5          1.2231   -1.7588   -0.0176 H         1 <0>         0.1222
     32 H6         -0.9258   -0.5567    0.0082 H         1 <0>         0.1331
     33 H7          4.4960   -0.0399   -0.3940 H         1 <0>         0.1268
     34 H8          4.2104   -0.3176    2.0215 H         1 <0>         0.1517
     35 H9          3.2232   -1.7768    1.7676 H         1 <0>         0.1392
     36 H10         6.0324   -1.4496    0.9797 H         1 <0>         0.4426
     37 H11         5.4908   -2.3134    2.2741 H         1 <0>         0.4371
     38 H12         2.7469   -2.2666   -1.1082 H         1 <0>         0.4152
     39 H13         6.6635   -3.8930   -2.9950 H         1 <0>         0.1559
     40 H14         3.4081   -6.3746   -4.4430 H         1 <0>         0.1994
     41 H15         7.1779   -4.3534   -5.5286 H         1 <0>         0.1389
     42 H16         8.7904   -5.7181   -6.7787 H         1 <0>         0.1663
     43 H17         4.6372   -8.2667   -3.1502 H         1 <0>         0.1478
     44 H18         5.5932  -10.6078   -3.7850 H         1 <0>         0.1822
     45 H19         5.1186   -2.8004    0.7447 H         1 <0>         0.4268
@<TRIPOS>BOND
     1    1    6 ar
     2    1    2 ar
     3    1   28 1
     4    2    3 ar
     5    2   29 1
     6    3    4 ar
     7    3   30 1
     8    4    5 ar
     9    4    7 1
    10    5    6 ar
    11    5   31 1
    12    6   32 1
    13    7    8 1
    14    7   10 1
    15    7   33 1
    16    8    9 1
    17    8   34 1
    18    8   35 1
    19    9   36 1
    20    9   37 1
    21    9   45 1
    22   10   11 am
    23   10   38 1
    24   11   12 2
    25   11   13 1
    26   13   17 1
    27   13   14 2
    28   14   15 1
    29   14   39 1
    30   15   16 2
    31   15   18 1
    32   16   17 1
    33   16   40 1
    34   18   23 ar
    35   18   19 ar
    36   19   20 ar
    37   19   41 1
    38   20   21 ar
    39   20   42 1
    40   21   22 ar
    41   22   26 1
    42   22   23 ar
    43   23   24 1
    44   24   25 2
    45   24   43 1
    46   25   26 1
    47   25   44 1
    48   26   27 1
@<TRIPOS>MOLECULE
CHEMBL415220
   70    74     0     0     0
SMALL
USER_CHARGES

@<TRIPOS>ATOM
      1 C1         -0.0041    0.2478    0.7738 C.3       1 <0>        -0.0807
      2 C2          0.0666   -1.2514    0.6376 C.2       1 <0>         0.1088
      3 C3          0.0738   -2.0024   -0.6143 C.ar      1 <0>        -0.1763
      4 C4          0.0231   -1.6385   -1.9630 C.ar      1 <0>        -0.0085
      5 C5          0.0479   -2.6250   -2.9358 C.ar      1 <0>        -0.1058
      6 C6          0.1231   -3.9744   -2.5694 C.ar      1 <0>        -0.0534
      7 C7          0.1729   -4.3373   -1.2563 C.ar      1 <0>        -0.1372
      8 C8          0.1494   -3.3634   -0.2592 C.ar      1 <0>         0.1438
      9 N1          0.1844   -3.4117    1.1101 N.pl3     1 <0>        -0.5046
     10 H1          0.2369   -4.2203    1.6433 H         1 <0>         0.4443
     11 N2          0.1378   -2.1085    1.6155 N.2       1 <0>        -0.2437
     12 C9         -0.0060   -2.2502   -4.3708 C.ar      1 <0>        -0.0274
     13 C10         0.0123   -3.2343   -5.3618 C.ar      1 <0>        -0.1015
     14 C11        -0.0405   -2.8314   -6.6899 C.ar      1 <0>         0.0702
     15 C12        -0.1091   -1.4763   -6.9837 C.ar      1 <0>         0.0162
     16 N3         -0.1246   -0.5741   -6.0224 N.ar      1 <0>        -0.4368
     17 C13        -0.0815   -0.9117   -4.7498 C.ar      1 <0>         0.0811
     18 O1         -0.0248   -3.7522   -7.6895 O.3       1 <0>        -0.3229
     19 C14        -0.0821   -3.2570   -9.0287 C.3       1 <0>         0.0274
     20 C15        -0.0544   -4.4319  -10.0085 C.3       1 <0>         0.0440
     21 H2          0.8217   -5.0494   -9.8106 H         1 <0>         0.1562
     22 C16         0.0100   -3.8995  -11.4414 C.3       1 <0>        -0.0971
     23 C17         0.1611   -5.0529  -12.3995 C.ar      1 <0>        -0.0874
     24 C18         1.4221   -5.5001  -12.7490 C.ar      1 <0>        -0.1452
     25 C19         1.5640   -6.5579  -13.6277 C.ar      1 <0>        -0.0623
     26 C20         0.4456   -7.1708  -14.1592 C.ar      1 <0>        -0.1980
     27 C21        -0.8204   -6.7241  -13.8102 C.ar      1 <0>         0.1491
     28 C22        -0.9602   -5.6661  -12.9233 C.ar      1 <0>        -0.1782
     29 O2         -1.9220   -7.3253  -14.3316 O.3       1 <0>        -0.2948
     30 C23        -1.7025   -8.4119  -15.2333 C.3       1 <0>         0.0645
     31 C24        -3.0494   -8.9571  -15.7125 C.3       1 <0>         0.0519
     32 N4         -3.7396   -7.9301  -16.5042 N.3       1 <0>        -0.5323
     33 C25        -5.1796   -8.2126  -16.5929 C.3       1 <0>         0.0177
     34 C26        -5.8674   -7.0895  -17.3736 C.3       1 <0>         0.0630
     35 O3         -5.2589   -6.9695  -18.6622 O.3       1 <0>        -0.3819
     36 C27        -3.8564   -6.6937  -18.6132 C.3       1 <0>         0.0638
     37 C28        -3.1482   -7.8128  -17.8451 C.3       1 <0>         0.0125
     38 N5         -1.2704   -5.2387   -9.8401 N.4       1 <0>        -0.6371
     39 H3          1.0049    0.6603    0.7771 H         1 <0>         0.0878
     40 H4         -0.5635    0.6628   -0.0646 H         1 <0>         0.0843
     41 H5         -0.5047    0.5046    1.7074 H         1 <0>         0.0843
     42 H6         -0.0353   -0.5974   -2.2445 H         1 <0>         0.1366
     43 H7          0.1415   -4.7358   -3.3352 H         1 <0>         0.1317
     44 H8          0.2304   -5.3818   -0.9878 H         1 <0>         0.1331
     45 H9          0.0665   -4.2812   -5.1021 H         1 <0>         0.1475
     46 H10        -0.1501   -1.1565   -8.0145 H         1 <0>         0.1568
     47 H11        -0.1008   -0.1423   -3.9921 H         1 <0>         0.1668
     48 H12        -1.0026   -2.6900   -9.1673 H         1 <0>         0.0931
     49 H13         0.7749   -2.6094   -9.2136 H         1 <0>         0.1147
     50 H14        -0.9071   -3.3560  -11.6687 H         1 <0>         0.1059
     51 H15         0.8638   -3.2294  -11.5420 H         1 <0>         0.1283
     52 H16         2.2976   -5.0218  -12.3352 H         1 <0>         0.1319
     53 H17         2.5499   -6.9053  -13.8991 H         1 <0>         0.1348
     54 H18         0.5570   -7.9967  -14.8461 H         1 <0>         0.1346
     55 H19        -1.9449   -5.3196  -12.6463 H         1 <0>         0.1305
     56 H20        -1.1265   -8.0624  -16.0901 H         1 <0>         0.0680
     57 H21        -1.1516   -9.2020  -14.7230 H         1 <0>         0.0716
     58 H22        -2.8852   -9.8413  -16.3283 H         1 <0>         0.0668
     59 H23        -3.6611   -9.2232  -14.8504 H         1 <0>         0.0889
     60 H24        -5.3335   -9.1609  -17.1079 H         1 <0>         0.0470
     61 H25        -5.6018   -8.2699  -15.5896 H         1 <0>         0.0879
     62 H26        -6.9256   -7.3231  -17.4911 H         1 <0>         0.1016
     63 H27        -5.7595   -6.1502  -16.8312 H         1 <0>         0.0598
     64 H28        -3.4602   -6.6410  -19.6272 H         1 <0>         0.1011
     65 H29        -3.6900   -5.7429  -18.1068 H         1 <0>         0.0595
     66 H30        -2.0875   -7.5782  -17.7558 H         1 <0>         0.0838
     67 H31        -3.2696   -8.7547  -18.3801 H         1 <0>         0.0481
     68 H32        -1.2521   -6.0135  -10.4862 H         1 <0>         0.4372
     69 H33        -1.3129   -5.5898   -8.8951 H         1 <0>         0.4418
     70 H34        -2.0814   -4.6670  -10.0233 H         1 <0>         0.4328
@<TRIPOS>BOND
     1    1    2 1
     2    1   39 1
     3    1   40 1
     4    1   41 1
     5    2   11 2
     6    2    3 1
     7    3    8 ar
     8    3    4 ar
     9    4    5 ar
    10    4   42 1
    11    5    6 ar
    12    5   12 1
    13    6    7 ar
    14    6   43 1
    15    7    8 ar
    16    7   44 1
    17    8    9 1
    18    9   10 1
    19    9   11 1
    20   12   17 ar
    21   12   13 ar
    22   13   14 ar
    23   13   45 1
    24   14   15 ar
    25   14   18 1
    26   15   16 ar
    27   15   46 1
    28   16   17 ar
    29   17   47 1
    30   18   19 1
    31   19   20 1
    32   19   48 1
    33   19   49 1
    34   20   21 1
    35   20   22 1
    36   20   38 1
    37   22   23 1
    38   22   50 1
    39   22   51 1
    40   23   28 ar
    41   23   24 ar
    42   24   25 ar
    43   24   52 1
    44   25   26 ar
    45   25   53 1
    46   26   27 ar
    47   26   54 1
    48   27   28 ar
    49   27   29 1
    50   28   55 1
    51   29   30 1
    52   30   31 1
    53   30   56 1
    54   30   57 1
    55   31   32 1
    56   31   58 1
    57   31   59 1
    58   32   37 1
    59   32   33 1
    60   33   34 1
    61   33   60 1
    62   33   61 1
    63   34   35 1
    64   34   62 1
    65   34   63 1
    66   35   36 1
    67   36   37 1
    68   36   64 1
    69   36   65 1
    70   37   66 1
    71   37   67 1
    72   38   68 1
    73   38   69 1
    74   38   70 1
@<TRIPOS>MOLECULE
CHEMBL415220
   71    75     0     0     0
SMALL
USER_CHARGES

@<TRIPOS>ATOM
      1 C1          1.2878    0.9949    0.0339 C.3       1 <0>        -0.0814
      2 C2          1.2781   -0.5112   -0.0168 C.2       1 <0>         0.1095
      3 C3          1.1841   -1.3311   -1.2211 C.ar      1 <0>        -0.1763
      4 C4          1.0817   -1.0419   -2.5849 C.ar      1 <0>        -0.0059
      5 C5          1.0081   -2.0818   -3.4978 C.ar      1 <0>        -0.1106
      6 C6          1.0361   -3.4104   -3.0565 C.ar      1 <0>        -0.0539
      7 C7          1.1358   -3.7005   -1.7282 C.ar      1 <0>        -0.1368
      8 C8          1.2112   -2.6719   -0.7904 C.ar      1 <0>         0.1453
      9 N1          1.3144   -2.6445    0.5761 N.pl3     1 <0>        -0.5033
     10 H1          1.3548   -3.4233    1.1529 H         1 <0>         0.4450
     11 N2          1.3577   -1.3142    1.0053 N.2       1 <0>        -0.2414
     12 C9          0.8986   -1.7864   -4.9481 C.ar      1 <0>        -0.0232
     13 C10         0.8178   -2.8245   -5.8790 C.ar      1 <0>        -0.1012
     14 C11         0.7162   -2.4951   -7.2244 C.ar      1 <0>         0.0660
     15 C12         0.6988   -1.1571   -7.5940 C.ar      1 <0>         0.0153
     16 N3          0.7771   -0.2024   -6.6881 N.ar      1 <0>        -0.4359
     17 C13         0.8692   -0.4693   -5.4013 C.ar      1 <0>         0.0835
     18 O1          0.6354   -3.4706   -8.1674 O.3       1 <0>        -0.3237
     19 C14         0.5334   -3.0496   -9.5292 C.3       1 <0>         0.0268
     20 C15         0.4531   -4.2777  -10.4381 C.3       1 <0>         0.0431
     21 H2          1.3071   -4.9276  -10.2469 H         1 <0>         0.1579
     22 C16         0.4695   -3.8312  -11.9014 C.3       1 <0>        -0.1010
     23 C17         0.5144   -5.0432  -12.7959 C.ar      1 <0>        -0.0817
     24 C18         1.7324   -5.5741  -13.1794 C.ar      1 <0>        -0.1250
     25 C19         1.7770   -6.6858  -13.9999 C.ar      1 <0>        -0.0592
     26 C20         0.6041   -7.2691  -14.4392 C.ar      1 <0>        -0.1894
     27 C21        -0.6189   -6.7385  -14.0560 C.ar      1 <0>         0.1287
     28 C22        -0.6610   -5.6263  -13.2275 C.ar      1 <0>        -0.1680
     29 O2         -1.7740   -7.3104  -14.4868 O.3       1 <0>        -0.3286
     30 C23        -1.6546   -8.4561  -15.3324 C.3       1 <0>         0.0245
     31 C24        -3.0494   -8.9571  -15.7125 C.3       1 <0>        -0.0008
     32 N4         -3.7396   -7.9301  -16.5042 N.4       1 <0>        -0.3867
     33 C25        -5.1270   -8.3488  -16.7471 C.3       1 <0>        -0.0446
     34 C26        -5.8440   -7.2771  -17.5720 C.3       1 <0>         0.0355
     35 O3         -5.1350   -7.0724  -18.7972 O.3       1 <0>        -0.3523
     36 C27        -3.7703   -6.6859  -18.6127 C.3       1 <0>         0.0373
     37 C28        -3.0494   -7.7565  -17.7898 C.3       1 <0>        -0.0508
     38 N5         -0.7905   -5.0098  -10.1634 N.4       1 <0>        -0.6373
     39 H3          2.3145    1.3542   -0.0363 H         1 <0>         0.0886
     40 H4          0.7068    1.3903   -0.7993 H         1 <0>         0.0842
     41 H5          0.8492    1.3297    0.9739 H         1 <0>         0.0853
     42 H6          1.0598   -0.0168   -2.9242 H         1 <0>         0.1368
     43 H7          0.9778   -4.2137   -3.7759 H         1 <0>         0.1305
     44 H8          1.1560   -4.7298   -1.4016 H         1 <0>         0.1334
     45 H9          0.8341   -3.8565   -5.5609 H         1 <0>         0.1475
     46 H10         0.6204   -0.8944   -8.6387 H         1 <0>         0.1551
     47 H11         0.9266    0.3416   -4.6904 H         1 <0>         0.1684
     48 H12        -0.3643   -2.4444   -9.6561 H         1 <0>         0.0931
     49 H13         1.4103   -2.4586   -9.7935 H         1 <0>         0.1160
     50 H14        -0.4304   -3.2548  -12.1155 H         1 <0>         0.1082
     51 H15         1.3487   -3.2130  -12.0828 H         1 <0>         0.1333
     52 H16         2.6504   -5.1192  -12.8376 H         1 <0>         0.1408
     53 H17         2.7295   -7.0985  -14.2980 H         1 <0>         0.1430
     54 H18         0.6394   -8.1371  -15.0808 H         1 <0>         0.1369
     55 H19        -1.6120   -5.2141  -12.9238 H         1 <0>         0.1336
     56 H20        -1.1071   -8.1859  -16.2353 H         1 <0>         0.0916
     57 H21        -1.1174   -9.2435  -14.8037 H         1 <0>         0.1151
     58 H22        -2.9597   -9.8702  -16.3009 H         1 <0>         0.1552
     59 H23        -3.6207   -9.1628  -14.8073 H         1 <0>         0.1453
     60 H24        -5.1318   -9.2920  -17.2934 H         1 <0>         0.1429
     61 H25        -5.6400   -8.4778  -15.7940 H         1 <0>         0.1444
     62 H26        -6.8604   -7.6050  -17.7900 H         1 <0>         0.1458
     63 H27        -5.8747   -6.3443  -17.0089 H         1 <0>         0.0810
     64 H28        -3.2858   -6.5859  -19.5840 H         1 <0>         0.1446
     65 H29        -3.7299   -5.7329  -18.0853 H         1 <0>         0.0804
     66 H30        -2.0201   -7.4457  -17.6108 H         1 <0>         0.1380
     67 H31        -3.0550   -8.6999  -18.3358 H         1 <0>         0.1441
     68 H32        -1.5810   -4.4082  -10.3404 H         1 <0>         0.4325
     69 H33        -0.8434   -5.8197  -10.7628 H         1 <0>         0.4326
     70 H34        -0.8013   -5.3042   -9.1984 H         1 <0>         0.4455
     71 H35        -3.7352   -7.0565  -15.9993 H         1 <0>         0.4267
@<TRIPOS>BOND
     1    1    2 1
     2    1   39 1
     3    1   40 1
     4    1   41 1
     5    2   11 2
     6    2    3 1
     7    3    8 ar
     8    3    4 ar
     9    4    5 ar
    10    4   42 1
    11    5    6 ar
    12    5   12 1
    13    6    7 ar
    14    6   43 1
    15    7    8 ar
    16    7   44 1
    17    8    9 1
    18    9   10 1
    19    9   11 1
    20   12   17 ar
    21   12   13 ar
    22   13   14 ar
    23   13   45 1
    24   14   15 ar
    25   14   18 1
    26   15   16 ar
    27   15   46 1
    28   16   17 ar
    29   17   47 1
    30   18   19 1
    31   19   20 1
    32   19   48 1
    33   19   49 1
    34   20   21 1
    35   20   22 1
    36   20   38 1
    37   22   23 1
    38   22   50 1
    39   22   51 1
    40   23   28 ar
    41   23   24 ar
    42   24   25 ar
    43   24   52 1
    44   25   26 ar
    45   25   53 1
    46   26   27 ar
    47   26   54 1
    48   27   28 ar
    49   27   29 1
    50   28   55 1
    51   29   30 1
    52   30   31 1
    53   30   56 1
    54   30   57 1
    55   31   32 1
    56   31   58 1
    57   31   59 1
    58   32   37 1
    59   32   33 1
    60   32   71 1
    61   33   34 1
    62   33   60 1
    63   33   61 1
    64   34   35 1
    65   34   62 1
    66   34   63 1
    67   35   36 1
    68   36   37 1
    69   36   64 1
    70   36   65 1
    71   37   66 1
    72   37   67 1
    73   38   68 1
    74   38   69 1
    75   38   70 1
@<TRIPOS>MOLECULE
CHEMBL255592
   55    59     0     0     0
SMALL
USER_CHARGES

@<TRIPOS>ATOM
      1 C1          1.0211    0.1717    1.1321 C.3       1 <0>        -0.1500
      2 C2          0.0040   -0.0023    0.0024 C.3       1 <0>         0.0798
      3 C3         -1.0542   -1.0247    0.4218 C.3       1 <0>        -0.1430
      4 C4         -0.6449    1.2891   -0.2768 C.1       1 <0>         0.2085
      5 N1         -1.1457    2.2857   -0.4922 N.1       1 <0>        -0.4149
      6 C5          0.7089   -0.4888   -1.2376 C.ar      1 <0>        -0.0671
      7 C6          2.0738   -0.7092   -1.2138 C.ar      1 <0>        -0.0964
      8 C7          2.7227   -1.1550   -2.3486 C.ar      1 <0>        -0.0963
      9 C8          2.0029   -1.3823   -3.5140 C.ar      1 <0>         0.1319
     10 C9          0.6324   -1.1605   -3.5346 C.ar      1 <0>        -0.0925
     11 C10        -0.0115   -0.7193   -2.3952 C.ar      1 <0>        -0.0949
     12 N2          2.6582   -1.8341   -4.6669 N.am      1 <0>        -0.4789
     13 C11         2.9436   -3.1522   -4.9704 C.ar      1 <0>         0.1392
     14 C12         2.7182   -4.3876   -4.3265 C.ar      1 <0>        -0.0684
     15 C13         2.0679   -4.4582   -3.0898 C.ar      1 <0>        -0.0716
     16 C14         1.8675   -5.6954   -2.4934 C.ar      1 <0>         0.0249
     17 C15         2.3151   -6.8693   -3.1271 C.ar      1 <0>        -0.0785
     18 C16         2.9473   -6.8153   -4.3267 C.ar      1 <0>        -0.0791
     19 C17         3.1651   -5.5762   -4.9573 C.ar      1 <0>         0.1402
     20 N3          3.7867   -5.5128   -6.1405 N.ar      1 <0>        -0.4572
     21 C18         4.0036   -4.3725   -6.7526 C.ar      1 <0>         0.1749
     22 C19         3.5962   -3.1593   -6.1986 C.ar      1 <0>         0.0246
     23 N4          3.6893   -1.8322   -6.6098 N.am      1 <0>        -0.5237
     24 C20         3.1120   -1.0582   -5.6703 C.2       1 <0>         0.6768
     25 O1          3.0170    0.1539   -5.7195 O.2       1 <0>        -0.5327
     26 C21         4.3044   -1.3594   -7.8526 C.3       1 <0>         0.0963
     27 C22         1.2028   -5.7775   -1.2277 C.1       1 <0>        -0.1047
     28 C23         0.6579   -5.8448   -0.1900 C.1       1 <0>        -0.1064
     29 C24        -0.0068   -5.9269    1.0757 C.ar      1 <0>        -0.0378
     30 C25        -0.4635   -4.7676    1.7177 C.ar      1 <0>        -0.0528
     31 C26        -1.0992   -4.9020    2.9388 C.ar      1 <0>        -0.1690
     32 C27        -1.2625   -6.1639    3.4825 C.ar      1 <0>         0.1087
     33 N5         -0.8222   -7.2383    2.8564 N.ar      1 <0>        -0.4804
     34 C28        -0.2164   -7.1644    1.6895 C.ar      1 <0>         0.1285
     35 H1          1.5016   -0.7846    1.3389 H         1 <0>         0.0841
     36 H2          1.7749    0.9001    0.8333 H         1 <0>         0.0717
     37 H3          0.5113    0.5236    2.0290 H         1 <0>         0.0748
     38 H4         -1.5640   -0.6728    1.3187 H         1 <0>         0.0755
     39 H5         -1.7787   -1.1486   -0.3830 H         1 <0>         0.0698
     40 H6         -0.5736   -1.9809    0.6286 H         1 <0>         0.0790
     41 H7          2.6331   -0.5322   -0.3070 H         1 <0>         0.1459
     42 H8          3.7888   -1.3263   -2.3296 H         1 <0>         0.1343
     43 H9          0.0699   -1.3362   -4.4397 H         1 <0>         0.1326
     44 H10        -1.0781   -0.5501   -2.4095 H         1 <0>         0.1350
     45 H11         1.7249   -3.5572   -2.6030 H         1 <0>         0.1346
     46 H12         2.1537   -7.8259   -2.6524 H         1 <0>         0.1400
     47 H13         3.2846   -7.7262   -4.7989 H         1 <0>         0.1489
     48 H14         4.5100   -4.3735   -7.7065 H         1 <0>         0.1714
     49 H15         3.5524   -1.3274   -8.6409 H         1 <0>         0.0761
     50 H16         4.7124   -0.3604   -7.6989 H         1 <0>         0.0919
     51 H17         5.1061   -2.0386   -8.1425 H         1 <0>         0.0903
     52 H18        -0.3225   -3.7946    1.2708 H         1 <0>         0.1395
     53 H19        -1.4640   -4.0309    3.4627 H         1 <0>         0.1435
     54 H20        -1.7586   -6.2710    4.4358 H         1 <0>         0.1613
     55 H21         0.1253   -8.0672    1.2052 H         1 <0>         0.1616
@<TRIPOS>BOND
     1    1    2 1
     2    1   35 1
     3    1   36 1
     4    1   37 1
     5    2    3 1
     6    2    4 1
     7    2    6 1
     8    3   38 1
     9    3   39 1
    10    3   40 1
    11    4    5 3
    12    6   11 ar
    13    6    7 ar
    14    7    8 ar
    15    7   41 1
    16    8    9 ar
    17    8   42 1
    18    9   10 ar
    19    9   12 1
    20   10   11 ar
    21   10   43 1
    22   11   44 1
    23   12   24 am
    24   12   13 1
    25   13   22 ar
    26   13   14 ar
    27   14   19 ar
    28   14   15 ar
    29   15   16 ar
    30   15   45 1
    31   16   17 ar
    32   16   27 1
    33   17   18 ar
    34   17   46 1
    35   18   19 ar
    36   18   47 1
    37   19   20 ar
    38   20   21 ar
    39   21   22 ar
    40   21   48 1
    41   22   23 1
    42   23   24 am
    43   23   26 1
    44   24   25 2
    45   26   49 1
    46   26   50 1
    47   26   51 1
    48   27   28 3
    49   28   29 1
    50   29   34 ar
    51   29   30 ar
    52   30   31 ar
    53   30   52 1
    54   31   32 ar
    55   31   53 1
    56   32   33 ar
    57   32   54 1
    58   33   34 ar
    59   34   55 1
@<TRIPOS>MOLECULE
CHEMBL1202518
   65    68     0     0     0
SMALL
USER_CHARGES

@<TRIPOS>ATOM
      1 C1         -2.5627    1.5323    2.3104 C.3       1 <0>         0.0223
      2 O1         -2.6300    0.1071    2.3899 O.3       1 <0>        -0.3046
      3 C2         -2.5327   -0.5819    1.2209 C.ar      1 <0>         0.0937
      4 C3         -2.3698    0.1037    0.0248 C.ar      1 <0>        -0.1462
      5 C4         -2.2698   -0.5857   -1.1686 C.ar      1 <0>        -0.1105
      6 C5         -2.3308   -1.9697   -1.1816 C.ar      1 <0>         0.1328
      7 C6         -2.4948   -2.6722    0.0225 C.ar      1 <0>        -0.1799
      8 C7         -2.5905   -1.9657    1.2281 C.ar      1 <0>         0.1153
      9 F1         -2.7438   -2.6315    2.3935 F         1 <0>        -0.1187
     10 C8         -2.5611   -4.1431    0.0187 C.2       1 <0>         0.4575
     11 O2         -1.5398   -4.7979    0.0991 O.2       1 <0>        -0.4172
     12 C9         -3.8709   -4.8244   -0.0831 C.ar      1 <0>        -0.1220
     13 C10        -5.0323   -4.0775   -0.2902 C.ar      1 <0>        -0.0632
     14 C11        -6.2516   -4.7121   -0.3848 C.ar      1 <0>        -0.0637
     15 C12        -6.3259   -6.1015   -0.2737 C.ar      1 <0>        -0.1155
     16 C13        -5.1651   -6.8484   -0.0666 C.ar      1 <0>        -0.1017
     17 C14        -3.9448   -6.2147    0.0223 C.ar      1 <0>        -0.0645
     18 C15        -7.6360   -6.7829   -0.3749 C.2       1 <0>         0.5673
     19 O3         -8.6469   -6.1327   -0.5548 O.2       1 <0>        -0.5063
     20 N1         -7.7079   -8.1245   -0.2676 N.am      1 <0>        -0.7385
     21 C16        -9.0046   -8.7990   -0.3678 C.3       1 <0>         0.1382
     22 H1         -9.6267   -8.2670   -1.0876 H         1 <0>         0.1188
     23 C17        -9.6943   -8.7693    1.0111 C.3       1 <0>        -0.1490
     24 C18       -10.7986   -9.7892    1.1229 C.3       1 <0>        -0.1375
     25 C19       -10.2262  -11.0865    1.7315 C.3       1 <0>        -0.0383
     26 N2         -9.5238  -11.8406    0.7898 N.4       1 <0>        -0.4821
     27 C20        -8.3366  -11.1474    0.2527 C.3       1 <0>        -0.0254
     28 C21        -8.7836  -10.2402   -0.8638 C.3       1 <0>         0.1172
     29 N3         -7.7604  -10.2344   -1.9122 N.am      1 <0>        -0.7225
     30 C22        -7.7349  -11.2168   -2.8345 C.2       1 <0>         0.5748
     31 O4         -8.5607  -12.1074   -2.7965 O.2       1 <0>        -0.5225
     32 C23        -6.7002  -11.2108   -3.8947 C.ar      1 <0>        -0.1045
     33 C24        -5.7372  -10.1988   -3.9532 C.ar      1 <0>        -0.1422
     34 C25        -4.7904  -10.2325   -4.9586 C.ar      1 <0>         0.1057
     35 N4         -4.7877  -11.2001   -5.8537 N.ar      1 <0>        -0.4561
     36 C26        -5.6770  -12.1729   -5.8348 C.ar      1 <0>         0.1066
     37 C27        -6.6559  -12.2203   -4.8611 C.ar      1 <0>        -0.1095
     38 O5         -2.2327   -2.6442   -2.3551 O.3       1 <0>        -0.4871
     39 H2         -2.6528    1.9566    3.3103 H         1 <0>         0.1096
     40 H3         -1.6079    1.8272    1.8752 H         1 <0>         0.0624
     41 H4         -3.3761    1.9002    1.6849 H         1 <0>         0.0622
     42 H5         -2.3214    1.1826    0.0270 H         1 <0>         0.1519
     43 H6         -2.1440   -0.0438   -2.0943 H         1 <0>         0.1507
     44 H7         -4.9749   -3.0025   -0.3758 H         1 <0>         0.1409
     45 H8         -7.1500   -4.1344   -0.5447 H         1 <0>         0.1474
     46 H9         -5.2229   -7.9234    0.0197 H         1 <0>         0.1283
     47 H10        -3.0461   -6.7930    0.1781 H         1 <0>         0.1454
     48 H11        -6.9011   -8.6435   -0.1240 H         1 <0>         0.3999
     49 H12        -8.9502   -8.9687    1.7823 H         1 <0>         0.0804
     50 H13       -10.1128   -7.7764    1.1752 H         1 <0>         0.1032
     51 H14       -11.5885   -9.4022    1.7665 H         1 <0>         0.1196
     52 H15       -11.2031   -9.9986    0.1327 H         1 <0>         0.0917
     53 H16        -9.5550  -10.8278    2.5503 H         1 <0>         0.1322
     54 H17       -11.0474  -11.6860    2.1243 H         1 <0>         0.1406
     55 H18        -9.2272  -12.7028    1.2218 H         1 <0>         0.4353
     56 H19        -7.8683  -10.5570    1.0402 H         1 <0>         0.1414
     57 H20        -7.6257  -11.8795   -0.1304 H         1 <0>         0.1445
     58 H21        -9.7164  -10.6207   -1.2800 H         1 <0>         0.1222
     59 H22        -7.1012   -9.5234   -1.9426 H         1 <0>         0.4127
     60 H23        -5.7339   -9.4025   -3.2236 H         1 <0>         0.1355
     61 H24        -4.0424   -9.4553   -5.0122 H         1 <0>         0.1681
     62 H25        -5.6375  -12.9454   -6.5885 H         1 <0>         0.1708
     63 H26        -7.3785  -13.0228   -4.8490 H         1 <0>         0.1515
     64 H27        -1.3232   -2.8119   -2.6376 H         1 <0>         0.4011
     65 H28       -10.1434  -12.0612    0.0246 H         1 <0>         0.4295
@<TRIPOS>BOND
     1    1    2 1
     2    1   39 1
     3    1   40 1
     4    1   41 1
     5    2    3 1
     6    3    8 ar
     7    3    4 ar
     8    4    5 ar
     9    4   42 1
    10    5    6 ar
    11    5   43 1
    12    6    7 ar
    13    6   38 1
    14    7    8 ar
    15    7   10 1
    16    8    9 1
    17   10   11 2
    18   10   12 1
    19   12   17 ar
    20   12   13 ar
    21   13   14 ar
    22   13   44 1
    23   14   15 ar
    24   14   45 1
    25   15   16 ar
    26   15   18 1
    27   16   17 ar
    28   16   46 1
    29   17   47 1
    30   18   19 2
    31   18   20 am
    32   20   21 1
    33   20   48 1
    34   21   22 1
    35   21   28 1
    36   21   23 1
    37   23   24 1
    38   23   49 1
    39   23   50 1
    40   24   25 1
    41   24   51 1
    42   24   52 1
    43   25   26 1
    44   25   53 1
    45   25   54 1
    46   26   27 1
    47   26   55 1
    48   26   65 1
    49   27   28 1
    50   27   56 1
    51   27   57 1
    52   28   29 1
    53   28   58 1
    54   29   30 am
    55   29   59 1
    56   30   31 2
    57   30   32 1
    58   32   37 ar
    59   32   33 ar
    60   33   34 ar
    61   33   60 1
    62   34   35 ar
    63   34   61 1
    64   35   36 ar
    65   36   37 ar
    66   36   62 1
    67   37   63 1
    68   38   64 1
@<TRIPOS>MOLECULE
CHEMBL1202518
   65    68     0     0     0
SMALL
USER_CHARGES

@<TRIPOS>ATOM
      1 C1         -2.5627    1.5323    2.3104 C.3       1 <0>         0.0224
      2 O1         -2.6300    0.1071    2.3899 O.3       1 <0>        -0.3046
      3 C2         -2.5327   -0.5819    1.2209 C.ar      1 <0>         0.0936
      4 C3         -2.3698    0.1037    0.0248 C.ar      1 <0>        -0.1466
      5 C4         -2.2698   -0.5857   -1.1686 C.ar      1 <0>        -0.1107
      6 C5         -2.3308   -1.9697   -1.1816 C.ar      1 <0>         0.1326
      7 C6         -2.4948   -2.6722    0.0225 C.ar      1 <0>        -0.1788
      8 C7         -2.5905   -1.9657    1.2281 C.ar      1 <0>         0.1155
      9 F1         -2.7438   -2.6315    2.3935 F         1 <0>        -0.1184
     10 C8         -2.5611   -4.1431    0.0187 C.2       1 <0>         0.4569
     11 O2         -1.5398   -4.7979    0.0991 O.2       1 <0>        -0.4171
     12 C9         -3.8709   -4.8244   -0.0831 C.ar      1 <0>        -0.1221
     13 C10        -5.0323   -4.0775   -0.2902 C.ar      1 <0>        -0.0654
     14 C11        -6.2516   -4.7121   -0.3848 C.ar      1 <0>        -0.0647
     15 C12        -6.3259   -6.1015   -0.2737 C.ar      1 <0>        -0.1159
     16 C13        -5.1651   -6.8484   -0.0666 C.ar      1 <0>        -0.0971
     17 C14        -3.9448   -6.2147    0.0223 C.ar      1 <0>        -0.0651
     18 C15        -7.6360   -6.7829   -0.3749 C.2       1 <0>         0.5684
     19 O3         -8.6469   -6.1327   -0.5548 O.2       1 <0>        -0.5155
     20 N1         -7.7079   -8.1245   -0.2676 N.am      1 <0>        -0.7280
     21 C16        -9.0046   -8.7990   -0.3678 C.3       1 <0>         0.1254
     22 H1         -9.6289   -8.2690   -1.0871 H         1 <0>         0.1133
     23 C17        -9.6966   -8.7792    1.0181 C.3       1 <0>        -0.1410
     24 C18       -11.1552   -9.1047    0.8376 C.3       1 <0>        -0.1435
     25 C19       -11.4695  -10.6061    0.9654 C.3       1 <0>        -0.0106
     26 N2        -10.4903  -11.4756    0.2787 N.4       1 <0>        -0.4992
     27 C20       -10.1105  -10.9470   -1.0090 C.3       1 <0>        -0.0237
     28 C21        -8.7984  -10.1663   -0.8289 C.3       1 <0>         0.1226
     29 N3         -8.0936  -10.1293   -2.1126 N.am      1 <0>        -0.7210
     30 C22        -7.3518  -11.1840   -2.5048 C.2       1 <0>         0.5732
     31 O4         -7.2677  -12.1657   -1.7936 O.2       1 <0>        -0.5209
     32 C23        -6.6391  -11.1465   -3.8030 C.ar      1 <0>        -0.1044
     33 C24        -6.7178  -10.0247   -4.6338 C.ar      1 <0>        -0.1411
     34 C25        -6.0367  -10.0322   -5.8357 C.ar      1 <0>         0.1048
     35 N4         -5.3215  -11.0771   -6.2019 N.ar      1 <0>        -0.4565
     36 C26        -5.2207  -12.1543   -5.4490 C.ar      1 <0>         0.1058
     37 C27        -5.8643  -12.2297   -4.2289 C.ar      1 <0>        -0.1101
     38 O5         -2.2327   -2.6442   -2.3551 O.3       1 <0>        -0.4872
     39 H2         -2.6528    1.9566    3.3103 H         1 <0>         0.1094
     40 H3         -1.6079    1.8272    1.8752 H         1 <0>         0.0623
     41 H4         -3.3761    1.9002    1.6849 H         1 <0>         0.0620
     42 H5         -2.3214    1.1826    0.0270 H         1 <0>         0.1518
     43 H6         -2.1440   -0.0438   -2.0943 H         1 <0>         0.1505
     44 H7         -4.9749   -3.0025   -0.3758 H         1 <0>         0.1403
     45 H8         -7.1500   -4.1344   -0.5447 H         1 <0>         0.1468
     46 H9         -5.2229   -7.9234    0.0197 H         1 <0>         0.1296
     47 H10        -3.0461   -6.7930    0.1781 H         1 <0>         0.1447
     48 H11        -6.9011   -8.6435   -0.1240 H         1 <0>         0.4064
     49 H12        -9.2342   -9.5223    1.6678 H         1 <0>         0.0764
     50 H13        -9.5956   -7.7892    1.4627 H         1 <0>         0.1072
     51 H14       -11.7294   -8.5627    1.5890 H         1 <0>         0.1173
     52 H15       -11.4691   -8.7652   -0.1495 H         1 <0>         0.0917
     53 H16       -11.4888  -10.8697    2.0228 H         1 <0>         0.1352
     54 H17       -12.4574  -10.7928    0.5442 H         1 <0>         0.1349
     55 H18        -9.6663  -11.5608    0.8547 H         1 <0>         0.4269
     56 H19        -9.9597  -11.7649   -1.7135 H         1 <0>         0.1443
     57 H20       -10.8895  -10.2800   -1.3783 H         1 <0>         0.1443
     58 H21        -8.1747  -10.6901   -0.1045 H         1 <0>         0.1120
     59 H22        -8.1608   -9.3457   -2.6804 H         1 <0>         0.4162
     60 H23        -7.3025   -9.1653   -4.3404 H         1 <0>         0.1370
     61 H24        -6.0914   -9.1703   -6.4843 H         1 <0>         0.1675
     62 H25        -4.6238  -12.9877   -5.7888 H         1 <0>         0.1702
     63 H26        -5.7736  -13.1137   -3.6150 H         1 <0>         0.1510
     64 H27        -1.3232   -2.8119   -2.6376 H         1 <0>         0.4010
     65 H28       -10.8963  -12.3905    0.1513 H         1 <0>         0.4377
@<TRIPOS>BOND
     1    1    2 1
     2    1   39 1
     3    1   40 1
     4    1   41 1
     5    2    3 1
     6    3    8 ar
     7    3    4 ar
     8    4    5 ar
     9    4   42 1
    10    5    6 ar
    11    5   43 1
    12    6    7 ar
    13    6   38 1
    14    7    8 ar
    15    7   10 1
    16    8    9 1
    17   10   11 2
    18   10   12 1
    19   12   17 ar
    20   12   13 ar
    21   13   14 ar
    22   13   44 1
    23   14   15 ar
    24   14   45 1
    25   15   16 ar
    26   15   18 1
    27   16   17 ar
    28   16   46 1
    29   17   47 1
    30   18   19 2
    31   18   20 am
    32   20   21 1
    33   20   48 1
    34   21   22 1
    35   21   28 1
    36   21   23 1
    37   23   24 1
    38   23   49 1
    39   23   50 1
    40   24   25 1
    41   24   51 1
    42   24   52 1
    43   25   26 1
    44   25   53 1
    45   25   54 1
    46   26   27 1
    47   26   55 1
    48   26   65 1
    49   27   28 1
    50   27   56 1
    51   27   57 1
    52   28   29 1
    53   28   58 1
    54   29   30 am
    55   29   59 1
    56   30   31 2
    57   30   32 1
    58   32   37 ar
    59   32   33 ar
    60   33   34 ar
    61   33   60 1
    62   34   35 ar
    63   34   61 1
    64   35   36 ar
    65   36   37 ar
    66   36   62 1
    67   37   63 1
    68   38   64 1
@<TRIPOS>MOLECULE
CHEMBL211186
   56    59     0     0     0
SMALL
USER_CHARGES

@<TRIPOS>ATOM
      1 C1         -0.0184    1.5028    0.0103 C.3       1 <0>        -0.0807
      2 C2          0.0021   -0.0041    0.0020 C.2       1 <0>         0.1088
      3 C3          0.0083   -0.8581   -1.1820 C.ar      1 <0>        -0.1763
      4 C4         -0.0019   -0.6082   -2.5573 C.ar      1 <0>        -0.0082
      5 C5          0.0079   -1.6738   -3.4431 C.ar      1 <0>        -0.1063
      6 C6          0.0279   -2.9891   -2.9631 C.ar      1 <0>        -0.0534
      7 C7          0.0380   -3.2410   -1.6234 C.ar      1 <0>        -0.1371
      8 C8          0.0285   -2.1860   -0.7124 C.ar      1 <0>         0.1440
      9 N1          0.0337   -2.1193    0.6566 N.pl3     1 <0>        -0.5044
     10 H1          0.0468   -2.8812    1.2569 H         1 <0>         0.4444
     11 N2          0.0230   -0.7772    1.0497 N.2       1 <0>        -0.2434
     12 C9         -0.0034   -1.4202   -4.9053 C.ar      1 <0>        -0.0270
     13 C10         0.0004   -2.4846   -5.8096 C.ar      1 <0>        -0.1016
     14 C11        -0.0110   -2.1940   -7.1677 C.ar      1 <0>         0.0696
     15 C12        -0.0257   -0.8671   -7.5756 C.ar      1 <0>         0.0161
     16 N3         -0.0289    0.1132   -6.6940 N.ar      1 <0>        -0.4368
     17 C13        -0.0238   -0.1167   -5.3969 C.ar      1 <0>         0.0813
     18 O1         -0.0074   -3.1961   -8.0859 O.3       1 <0>        -0.3238
     19 C14        -0.0198   -2.8144   -9.4629 C.3       1 <0>         0.0266
     20 C15        -0.0136   -4.0682  -10.3397 C.3       1 <0>         0.0398
     21 H2          0.8359   -4.6958  -10.0703 H         1 <0>         0.1551
     22 C16         0.0989   -3.6615  -11.8104 C.3       1 <0>        -0.1478
     23 C17         0.2306   -4.9150  -12.6776 C.3       1 <0>        -0.1278
     24 C18         0.3431   -4.5083  -14.1483 C.3       1 <0>        -0.0782
     25 C19         0.4728   -5.7431  -15.0024 C.ar      1 <0>        -0.0988
     26 C20         1.7234   -6.2605  -15.2840 C.ar      1 <0>        -0.1162
     27 C21         1.8424   -7.3931  -16.0675 C.ar      1 <0>        -0.1145
     28 C22         0.7108   -8.0085  -16.5691 C.ar      1 <0>        -0.1157
     29 C23        -0.5398   -7.4916  -16.2868 C.ar      1 <0>        -0.1162
     30 C24        -0.6591   -6.3615  -15.4997 C.ar      1 <0>        -0.1197
     31 N4         -1.2605   -4.8167  -10.1327 N.4       1 <0>        -0.6372
     32 H3          1.0042    1.8801    0.0026 H         1 <0>         0.0879
     33 H4         -0.5455    1.8639   -0.8728 H         1 <0>         0.0842
     34 H5         -0.5286    1.8543    0.9071 H         1 <0>         0.0843
     35 H6         -0.0177    0.4067   -2.9264 H         1 <0>         0.1366
     36 H7          0.0350   -3.8127   -3.6617 H         1 <0>         0.1316
     37 H8          0.0531   -4.2604   -1.2670 H         1 <0>         0.1332
     38 H9          0.0123   -3.5071   -5.4619 H         1 <0>         0.1475
     39 H10        -0.0343   -0.6345   -8.6302 H         1 <0>         0.1562
     40 H11        -0.0314    0.7142   -4.7071 H         1 <0>         0.1670
     41 H12        -0.9167   -2.2306   -9.6700 H         1 <0>         0.0916
     42 H13         0.8631   -2.2138   -9.6814 H         1 <0>         0.1133
     43 H14        -0.7936   -3.1088  -12.1038 H         1 <0>         0.0967
     44 H15         0.9777   -3.0313  -11.9469 H         1 <0>         0.1195
     45 H16         1.1231   -5.4677  -12.3842 H         1 <0>         0.0837
     46 H17        -0.6482   -5.5452  -12.5411 H         1 <0>         0.0621
     47 H18        -0.5494   -3.9557  -14.4417 H         1 <0>         0.0781
     48 H19         1.2219   -3.8781  -14.2847 H         1 <0>         0.0817
     49 H20         2.6074   -5.7796  -14.8921 H         1 <0>         0.1218
     50 H21         2.8194   -7.7969  -16.2880 H         1 <0>         0.1258
     51 H22         0.8038   -8.8930  -17.1819 H         1 <0>         0.1258
     52 H23        -1.4239   -7.9723  -16.6790 H         1 <0>         0.1249
     53 H24        -1.6363   -5.9598  -15.2761 H         1 <0>         0.1193
     54 H25        -1.2564   -5.6436  -10.7110 H         1 <0>         0.4370
     55 H26        -1.3347   -5.0850   -9.1628 H         1 <0>         0.4423
     56 H27        -2.0469   -4.2358  -10.3821 H         1 <0>         0.4335
@<TRIPOS>BOND
     1    1    2 1
     2    1   32 1
     3    1   33 1
     4    1   34 1
     5    2   11 2
     6    2    3 1
     7    3    8 ar
     8    3    4 ar
     9    4    5 ar
    10    4   35 1
    11    5    6 ar
    12    5   12 1
    13    6    7 ar
    14    6   36 1
    15    7    8 ar
    16    7   37 1
    17    8    9 1
    18    9   10 1
    19    9   11 1
    20   12   17 ar
    21   12   13 ar
    22   13   14 ar
    23   13   38 1
    24   14   15 ar
    25   14   18 1
    26   15   16 ar
    27   15   39 1
    28   16   17 ar
    29   17   40 1
    30   18   19 1
    31   19   20 1
    32   19   41 1
    33   19   42 1
    34   20   21 1
    35   20   22 1
    36   20   31 1
    37   22   23 1
    38   22   43 1
    39   22   44 1
    40   23   24 1
    41   23   45 1
    42   23   46 1
    43   24   25 1
    44   24   47 1
    45   24   48 1
    46   25   30 ar
    47   25   26 ar
    48   26   27 ar
    49   26   49 1
    50   27   28 ar
    51   27   50 1
    52   28   29 ar
    53   28   51 1
    54   29   30 ar
    55   29   52 1
    56   30   53 1
    57   31   54 1
    58   31   55 1
    59   31   56 1
@<TRIPOS>MOLECULE
CHEMBL162
   62    69     0     0     0
SMALL
USER_CHARGES

@<TRIPOS>ATOM
      1 C1         -0.1276    1.5938   -0.2902 C.3       1 <0>        -0.1687
      2 C2         -0.0844    0.0680   -0.1855 C.3       1 <0>         0.3345
      3 C3          0.5692   -0.4497   -1.4608 C.3       1 <0>         0.0405
      4 H1          1.4795    0.1163   -1.6584 H         1 <0>         0.1372
      5 C4          0.9165   -1.9328   -1.2885 C.3       1 <0>        -0.0062
      6 H2          1.3941   -2.3067   -2.1942 H         1 <0>         0.1555
      7 C5          1.8808   -2.0612   -0.1039 C.3       1 <0>        -0.1828
      8 C6          1.2106   -1.5234    1.1545 C.3       1 <0>         0.3001
      9 O1          0.6584   -0.2480    0.9698 O.3       1 <0>        -0.3232
     10 N1          0.2248   -2.4800    1.6600 N.pl3     1 <0>        -0.5368
     11 C7          0.4774   -3.5588    2.4701 C.ar      1 <0>         0.1470
     12 C8          1.6719   -4.0282    3.0159 C.ar      1 <0>        -0.1521
     13 C9          1.6013   -5.1613    3.8083 C.ar      1 <0>        -0.0582
     14 C10         0.4065   -5.8141    4.0588 C.ar      1 <0>        -0.1457
     15 C11        -0.7928   -5.3694    3.5296 C.ar      1 <0>        -0.0281
     16 C12        -0.7420   -4.2270    2.7281 C.ar      1 <0>        -0.1133
     17 C13        -1.7834   -3.4873    2.0211 C.ar      1 <0>         0.0272
     18 C14        -1.1387   -2.4235    1.3862 C.ar      1 <0>         0.0375
     19 C15        -1.8766   -1.5121    0.6225 C.ar      1 <0>         0.0893
     20 N2         -1.4701   -0.3965   -0.1042 N.pl3     1 <0>        -0.5183
     21 C16        -2.5609    0.1893   -0.7020 C.ar      1 <0>         0.1620
     22 C17        -2.6555    1.3256   -1.5046 C.ar      1 <0>        -0.1301
     23 C18        -3.9158    1.6704   -1.9636 C.ar      1 <0>        -0.0737
     24 C19        -5.0430    0.9315   -1.6503 C.ar      1 <0>        -0.1357
     25 C20        -4.9749   -0.2010   -0.8555 C.ar      1 <0>        -0.0503
     26 C21        -3.7134   -0.5626   -0.3834 C.ar      1 <0>        -0.1044
     27 C22        -3.2655   -1.6685    0.4924 C.ar      1 <0>        -0.0362
     28 C23        -3.9045   -2.7331    1.1195 C.ar      1 <0>        -0.0289
     29 C24        -3.1819   -3.6452    1.8815 C.ar      1 <0>        -0.1255
     30 C25        -4.1160   -4.6505    2.4114 C.2       1 <0>         0.5633
     31 O2         -3.7988   -5.5888    3.1172 O.2       1 <0>        -0.5106
     32 N3         -5.3694   -4.3854    2.0058 N.am      1 <0>        -0.7162
     33 C26        -5.3459   -3.1769    1.1740 C.3       1 <0>         0.1359
     34 N4         -0.3065   -2.7008   -1.0194 N.4       1 <0>        -0.5253
     35 C27         0.0148   -4.1335   -0.9747 C.3       1 <0>        -0.0497
     36 O3         -0.3352   -0.2957   -2.5564 O.3       1 <0>        -0.3613
     37 C28         0.3074   -0.0892   -3.8159 C.3       1 <0>         0.0162
     38 H3          0.8308    2.0068    0.0247 H         1 <0>         0.0984
     39 H4         -0.3256    1.8817   -1.3227 H         1 <0>         0.1037
     40 H5         -0.9185    1.9799    0.3528 H         1 <0>         0.0921
     41 H6          2.1400   -3.1098    0.0419 H         1 <0>         0.1233
     42 H7          2.7852   -1.4878   -0.3076 H         1 <0>         0.1455
     43 H8          1.9835   -1.4379    1.9183 H         1 <0>         0.1550
     44 H9          2.6113   -3.5296    2.8282 H         1 <0>         0.1364
     45 H10         2.5093   -5.5494    4.2456 H         1 <0>         0.1359
     46 H11         0.4102   -6.6943    4.6846 H         1 <0>         0.1352
     47 H12        -1.7231   -5.8814    3.7271 H         1 <0>         0.1602
     48 H13        -1.7841    1.9115   -1.7569 H         1 <0>         0.1438
     49 H14        -4.0225    2.5459   -2.5869 H         1 <0>         0.1335
     50 H15        -6.0015    1.2460   -2.0361 H         1 <0>         0.1333
     51 H16        -5.8562   -0.7761   -0.6128 H         1 <0>         0.1416
     52 H17        -6.1577   -4.9060    2.2257 H         1 <0>         0.4348
     53 H18        -5.9609   -2.3989    1.6262 H         1 <0>         0.1115
     54 H19        -5.7062   -3.4047    0.1708 H         1 <0>         0.1104
     55 H20        -0.6946   -2.4153   -0.1328 H         1 <0>         0.4186
     56 H21         0.7414   -4.3184   -0.1836 H         1 <0>         0.1191
     57 H22        -0.8927   -4.7033   -0.7750 H         1 <0>         0.1256
     58 H23         0.4340   -4.4418   -1.9324 H         1 <0>         0.1255
     59 H24        -0.4469    0.0185   -4.5954 H         1 <0>         0.1100
     60 H25         0.9142    0.8152   -3.7703 H         1 <0>         0.0633
     61 H26         0.9451   -0.9435   -4.0429 H         1 <0>         0.0514
     62 H27        -0.9792   -2.5296   -1.7517 H         1 <0>         0.4274
@<TRIPOS>BOND
     1    1    2 1
     2    1   38 1
     3    1   39 1
     4    1   40 1
     5    2    9 1
     6    2   20 1
     7    2    3 1
     8    3    4 1
     9    3    5 1
    10    3   36 1
    11    5    6 1
    12    5    7 1
    13    5   34 1
    14    7    8 1
    15    7   41 1
    16    7   42 1
    17    8    9 1
    18    8   10 1
    19    8   43 1
    20   10   18 1
    21   10   11 1
    22   11   16 ar
    23   11   12 ar
    24   12   13 ar
    25   12   44 1
    26   13   14 ar
    27   13   45 1
    28   14   15 ar
    29   14   46 1
    30   15   16 ar
    31   15   47 1
    32   16   17 1
    33   17   29 ar
    34   17   18 ar
    35   18   19 ar
    36   19   27 ar
    37   19   20 1
    38   20   21 1
    39   21   26 ar
    40   21   22 ar
    41   22   23 ar
    42   22   48 1
    43   23   24 ar
    44   23   49 1
    45   24   25 ar
    46   24   50 1
    47   25   26 ar
    48   25   51 1
    49   26   27 1
    50   27   28 ar
    51   28   33 1
    52   28   29 ar
    53   29   30 1
    54   30   31 2
    55   30   32 am
    56   32   33 1
    57   32   52 1
    58   33   53 1
    59   33   54 1
    60   34   35 1
    61   34   55 1
    62   34   62 1
    63   35   56 1
    64   35   57 1
    65   35   58 1
    66   36   37 1
    67   37   59 1
    68   37   60 1
    69   37   61 1
@<TRIPOS>MOLECULE
CHEMBL162
   61    68     0     0     0
SMALL
USER_CHARGES

@<TRIPOS>ATOM
      1 C1         -0.0567    1.5513   -0.0894 C.3       1 <0>        -0.1681
      2 C2         -0.0278    0.0218   -0.0599 C.3       1 <0>         0.3623
      3 C3          0.5811   -0.4397   -1.3782 C.3       1 <0>         0.0679
      4 H1          1.4914    0.1262   -1.5761 H         1 <0>         0.0865
      5 C4          0.9165   -1.9328   -1.2885 C.3       1 <0>         0.0550
      6 H2          1.3622   -2.2669   -2.2254 H         1 <0>         0.0644
      7 C5          1.9146   -2.1282   -0.1417 C.3       1 <0>        -0.1713
      8 C6          1.2889   -1.6457    1.1613 C.3       1 <0>         0.3303
      9 O1          0.7459   -0.3574    1.0554 O.3       1 <0>        -0.3432
     10 N1          0.3079   -2.6158    1.6500 N.pl3     1 <0>        -0.5147
     11 C7          0.5725   -3.7353    2.3988 C.ar      1 <0>         0.1480
     12 C8          1.7775   -4.2425    2.8844 C.ar      1 <0>        -0.1567
     13 C9          1.7179   -5.4120    3.6229 C.ar      1 <0>        -0.0771
     14 C10         0.5239   -6.0644    3.8782 C.ar      1 <0>        -0.1623
     15 C11        -0.6857   -5.5826    3.4081 C.ar      1 <0>        -0.0380
     16 C12        -0.6461   -4.4031    2.6615 C.ar      1 <0>        -0.1052
     17 C13        -1.6998   -3.6196    2.0235 C.ar      1 <0>        -0.0146
     18 C14        -1.0625   -2.5326    1.4212 C.ar      1 <0>         0.1328
     19 C15        -1.8127   -1.5778    0.7254 C.ar      1 <0>         0.2189
     20 N2         -1.4156   -0.4323    0.0413 N.pl3     1 <0>        -0.4798
     21 C16        -2.5171    0.1927   -0.4937 C.ar      1 <0>         0.1719
     22 C17        -2.6230    1.3676   -1.2371 C.ar      1 <0>        -0.1371
     23 C18        -3.8926    1.7468   -1.6400 C.ar      1 <0>        -0.0918
     24 C19        -5.0181    1.0048   -1.3284 C.ar      1 <0>        -0.1543
     25 C20        -4.9390   -0.1657   -0.5916 C.ar      1 <0>        -0.0609
     26 C21        -3.6680   -0.5623   -0.1765 C.ar      1 <0>        -0.0961
     27 C22        -3.2066   -1.7140    0.6307 C.ar      1 <0>        -0.0806
     28 C23        -3.8384   -2.8014    1.2249 C.ar      1 <0>        -0.0396
     29 C24        -3.1037   -3.7566    1.9194 C.ar      1 <0>        -0.1488
     30 C25        -4.0327   -4.7771    2.4285 C.2       1 <0>         0.5678
     31 O2         -3.7051   -5.7517    3.0781 O.2       1 <0>        -0.5303
     32 N3         -5.2947   -4.4802    2.0748 N.am      1 <0>        -0.7263
     33 C26        -5.2825   -3.2330    1.3021 C.3       1 <0>         0.1443
     34 N4         -0.3065   -2.7008   -1.0194 N.3       1 <0>        -0.6725
     35 C27        -0.9816   -3.0711   -2.2704 C.3       1 <0>         0.0321
     36 O3         -0.3541   -0.2236   -2.4368 O.3       1 <0>        -0.3500
     37 C28         0.2525    0.0376   -3.7040 C.3       1 <0>         0.0254
     38 H3          0.9143    1.9390    0.2190 H         1 <0>         0.0847
     39 H4         -0.2789    1.8910   -1.1010 H         1 <0>         0.0945
     40 H5         -0.8258    1.9134    0.5927 H         1 <0>         0.0811
     41 H6          2.1661   -3.1852   -0.0547 H         1 <0>         0.0955
     42 H7          2.8189   -1.5546   -0.3450 H         1 <0>         0.1024
     43 H8          2.0854   -1.6051    1.9042 H         1 <0>         0.1256
     44 H9          2.7165   -3.7447    2.6923 H         1 <0>         0.1264
     45 H10         2.6343   -5.8299    4.0129 H         1 <0>         0.1227
     46 H11         0.5364   -6.9739    4.4603 H         1 <0>         0.1222
     47 H12        -1.6153   -6.0942    3.6091 H         1 <0>         0.1517
     48 H13        -1.7529    1.9564   -1.4875 H         1 <0>         0.1345
     49 H14        -4.0081    2.6526   -2.2167 H         1 <0>         0.1197
     50 H15        -5.9842    1.3471   -1.6689 H         1 <0>         0.1193
     51 H16        -5.8191   -0.7431   -0.3501 H         1 <0>         0.1299
     52 H17        -6.0819   -5.0031    2.2935 H         1 <0>         0.4244
     53 H18        -5.8747   -2.4718    1.8101 H         1 <0>         0.0969
     54 H19        -5.6755   -3.4081    0.3006 H         1 <0>         0.0963
     55 H20        -0.1054   -3.5172   -0.4616 H         1 <0>         0.3444
     56 H21        -1.8838   -3.6387   -2.0422 H         1 <0>         0.0645
     57 H22        -1.2495   -2.1685   -2.8197 H         1 <0>         0.0818
     58 H23        -0.3126   -3.6808   -2.8776 H         1 <0>         0.0150
     59 H24        -0.5237    0.1905   -4.4538 H         1 <0>         0.0929
     60 H25         0.8707    0.9325   -3.6333 H         1 <0>         0.0448
     61 H26         0.8732   -0.8111   -3.9915 H         1 <0>         0.0400
@<TRIPOS>BOND
     1    1    2 1
     2    1   38 1
     3    1   39 1
     4    1   40 1
     5    2    9 1
     6    2   20 1
     7    2    3 1
     8    3    4 1
     9    3    5 1
    10    3   36 1
    11    5    6 1
    12    5    7 1
    13    5   34 1
    14    7    8 1
    15    7   41 1
    16    7   42 1
    17    8    9 1
    18    8   10 1
    19    8   43 1
    20   10   18 1
    21   10   11 1
    22   11   16 ar
    23   11   12 ar
    24   12   13 ar
    25   12   44 1
    26   13   14 ar
    27   13   45 1
    28   14   15 ar
    29   14   46 1
    30   15   16 ar
    31   15   47 1
    32   16   17 1
    33   17   29 ar
    34   17   18 ar
    35   18   19 ar
    36   19   27 ar
    37   19   20 1
    38   20   21 1
    39   21   26 ar
    40   21   22 ar
    41   22   23 ar
    42   22   48 1
    43   23   24 ar
    44   23   49 1
    45   24   25 ar
    46   24   50 1
    47   25   26 ar
    48   25   51 1
    49   26   27 1
    50   27   28 ar
    51   28   33 1
    52   28   29 ar
    53   29   30 1
    54   30   31 2
    55   30   32 am
    56   32   33 1
    57   32   52 1
    58   33   53 1
    59   33   54 1
    60   34   35 1
    61   34   55 1
    62   35   56 1
    63   35   57 1
    64   35   58 1
    65   36   37 1
    66   37   59 1
    67   37   60 1
    68   37   61 1
@<TRIPOS>MOLECULE
CHEMBL1082016
   52    55     0     0     0
SMALL
USER_CHARGES

@<TRIPOS>ATOM
      1 C1         -0.0178    1.4608    0.0101 C.3       1 <0>         0.0948
      2 N1          0.0021   -0.0041    0.0020 N.am      1 <0>        -0.5416
      3 C2         -1.1166   -0.8347    0.0027 C.ar      1 <0>         0.1004
      4 C3         -2.4790   -0.5893    0.0107 C.ar      1 <0>        -0.0955
      5 C4         -3.3743   -1.6585    0.0094 C.ar      1 <0>         0.0066
      6 C5         -2.8942   -2.9710    0.0001 C.ar      1 <0>        -0.0873
      7 C6         -1.5372   -3.2114   -0.0074 C.ar      1 <0>        -0.0933
      8 C7         -0.6433   -2.1494   -0.0067 C.ar      1 <0>         0.1003
      9 N2          0.7485   -2.0752   -0.0127 N.am      1 <0>        -0.6411
     10 H1          1.3571   -2.8305   -0.0198 H         1 <0>         0.4392
     11 C8          1.1043   -0.7769   -0.0131 C.2       1 <0>         0.6820
     12 O1          2.2490   -0.3643   -0.0227 O.2       1 <0>        -0.5438
     13 C9         -4.8303   -1.4038    0.0184 C.2       1 <0>        -0.1625
     14 C10        -5.8723   -2.2915    0.0245 C.2       1 <0>         0.0814
     15 N3         -7.0866   -1.7799    0.0321 N.2       1 <0>        -0.5601
     16 C11        -7.2788   -0.4767    0.0337 C.2       1 <0>         0.2766
     17 S1         -5.7156    0.1467    0.0323 S.3       1 <0>         0.1291
     18 N4         -8.4787    0.2141    0.0409 N.pl3     1 <0>        -0.7070
     19 C12        -9.7465   -0.5199    0.0486 C.3       1 <0>         0.1143
     20 C13       -10.9106    0.4730    0.0555 C.3       1 <0>         0.0243
     21 H2        -10.8996    1.0392    0.9869 H         1 <0>         0.1549
     22 C14       -12.2319   -0.2894   -0.0622 C.3       1 <0>        -0.0995
     23 C15       -13.3820    0.6757    0.0679 C.ar      1 <0>        -0.0982
     24 C16       -13.9138    0.9533    1.3133 C.ar      1 <0>        -0.1026
     25 C17       -14.9687    1.8386    1.4326 C.ar      1 <0>        -0.0558
     26 C18       -15.4917    2.4465    0.3066 C.ar      1 <0>        -0.1631
     27 C19       -14.9593    2.1695   -0.9387 C.ar      1 <0>        -0.0579
     28 C20       -13.9015    1.2876   -1.0575 C.ar      1 <0>        -0.1414
     29 C21       -16.6424    3.4108    0.4367 C.3       1 <0>         0.5037
     30 F1        -16.1469    4.7062    0.6197 F         1 <0>        -0.1717
     31 F2        -17.4197    3.3687   -0.7258 F         1 <0>        -0.1713
     32 F3        -17.4290    3.0526    1.5368 F         1 <0>        -0.1703
     33 N5        -10.7744    1.3952   -1.0798 N.4       1 <0>        -0.6401
     34 H3          1.0048    1.8381    0.0023 H         1 <0>         0.0988
     35 H4         -0.5450    1.8219   -0.8730 H         1 <0>         0.0754
     36 H5         -0.5280    1.8123    0.9069 H         1 <0>         0.0759
     37 H6         -2.8471    0.4260    0.0182 H         1 <0>         0.1291
     38 H7         -3.5880   -3.7987   -0.0009 H         1 <0>         0.1400
     39 H8         -1.1690   -4.2266   -0.0139 H         1 <0>         0.1421
     40 H9         -5.7073   -3.3588    0.0228 H         1 <0>         0.1816
     41 H10        -8.4798    1.1841    0.0409 H         1 <0>         0.4099
     42 H11        -9.8089   -1.1466   -0.8411 H         1 <0>         0.0996
     43 H12        -9.7982   -1.1466    0.9389 H         1 <0>         0.1167
     44 H13       -12.2807   -0.7841   -1.0323 H         1 <0>         0.1103
     45 H14       -12.2925   -1.0358    0.7298 H         1 <0>         0.1327
     46 H15       -13.5052    0.4784    2.1930 H         1 <0>         0.1451
     47 H16       -15.3847    2.0549    2.4056 H         1 <0>         0.1478
     48 H17       -15.3681    2.6442   -1.8184 H         1 <0>         0.1470
     49 H18       -13.4831    1.0740   -2.0300 H         1 <0>         0.1369
     50 H19       -10.7846    0.8710   -1.9419 H         1 <0>         0.4377
     51 H20       -11.5421    2.0499   -1.0752 H         1 <0>         0.4378
     52 H21        -9.9031    1.8979   -1.0021 H         1 <0>         0.4322
@<TRIPOS>BOND
     1    1    2 1
     2    1   34 1
     3    1   35 1
     4    1   36 1
     5    2   11 am
     6    2    3 1
     7    3    8 ar
     8    3    4 ar
     9    4    5 ar
    10    4   37 1
    11    5    6 ar
    12    5   13 1
    13    6    7 ar
    14    6   38 1
    15    7    8 ar
    16    7   39 1
    17    8    9 1
    18    9   10 1
    19    9   11 am
    20   11   12 2
    21   13   17 1
    22   13   14 2
    23   14   15 1
    24   14   40 1
    25   15   16 2
    26   16   17 1
    27   16   18 1
    28   18   19 1
    29   18   41 1
    30   19   20 1
    31   19   42 1
    32   19   43 1
    33   20   21 1
    34   20   22 1
    35   20   33 1
    36   22   23 1
    37   22   44 1
    38   22   45 1
    39   23   28 ar
    40   23   24 ar
    41   24   25 ar
    42   24   46 1
    43   25   26 ar
    44   25   47 1
    45   26   27 ar
    46   26   29 1
    47   27   28 ar
    48   27   48 1
    49   28   49 1
    50   29   30 1
    51   29   31 1
    52   29   32 1
    53   33   50 1
    54   33   51 1
    55   33   52 1
@<TRIPOS>MOLECULE
CHEMBL1096271
   64    68     0     0     0
SMALL
USER_CHARGES

@<TRIPOS>ATOM
      1 C1         -0.0173    1.4248    0.0099 C.3       1 <0>         0.0215
      2 O1          0.0021   -0.0041    0.0020 O.3       1 <0>        -0.2970
      3 C2         -1.2008   -0.6377    0.0101 C.ar      1 <0>         0.1212
      4 C3         -2.3652    0.1007    0.0195 C.ar      1 <0>        -0.1569
      5 C4         -3.5983   -0.5510    0.0278 C.ar      1 <0>        -0.0898
      6 C5         -4.8622    0.1864    0.0374 C.ar      1 <0>         0.0693
      7 C6         -4.9367    1.5779    0.0389 C.ar      1 <0>        -0.2057
      8 C7         -6.1897    2.1756    0.0479 C.ar      1 <0>         0.2262
      9 N1         -7.3051    1.4472    0.0554 N.ar      1 <0>        -0.5557
     10 C8         -7.2918    0.1269    0.0543 C.ar      1 <0>         0.4695
     11 C9         -6.0643   -0.5650    0.0450 C.ar      1 <0>        -0.2158
     12 C10        -5.9890   -1.9696    0.0429 C.ar      1 <0>         0.1855
     13 N2         -4.8436   -2.5949    0.0342 N.ar      1 <0>        -0.4766
     14 C11        -3.6562   -1.9654    0.0266 C.ar      1 <0>         0.1386
     15 C12        -2.4600   -2.6961    0.0174 C.ar      1 <0>        -0.1597
     16 C13        -1.2512   -2.0365    0.0031 C.ar      1 <0>         0.1387
     17 O2         -0.0952   -2.7511   -0.0123 O.3       1 <0>        -0.2980
     18 C14        -0.2129   -4.1752   -0.0188 C.3       1 <0>         0.0205
     19 N3         -8.4830   -0.5771    0.0629 N.pl3     1 <0>        -0.8307
     20 C15        -6.2885    3.6551    0.0497 C.ar      1 <0>        -0.0513
     21 C16        -7.5311    4.2831    0.1693 C.ar      1 <0>        -0.0568
     22 C17        -7.5694    5.6714    0.1656 C.ar      1 <0>         0.0576
     23 C18        -6.3822    6.3808    0.0441 C.ar      1 <0>         0.0338
     24 N4         -5.2266    5.7556   -0.0669 N.ar      1 <0>        -0.4416
     25 C19        -5.1429    4.4410   -0.0622 C.ar      1 <0>         0.1028
     26 O3         -8.7544    6.3273    0.2789 O.3       1 <0>        -0.3208
     27 C20        -8.7091    7.7555    0.2666 C.3       1 <0>         0.0266
     28 C21       -10.1277    8.3120    0.4036 C.3       1 <0>         0.0428
     29 H1        -10.7603    7.8905   -0.3777 H         1 <0>         0.1572
     30 C22       -10.0935    9.8354    0.2656 C.3       1 <0>        -0.0970
     31 C23       -11.5015   10.3726    0.2774 C.ar      1 <0>        -0.1162
     32 C24       -12.2000   10.5068   -0.9082 C.ar      1 <0>        -0.0989
     33 C25       -13.4914   10.9994   -0.8982 C.ar      1 <0>        -0.0902
     34 C26       -14.0852   11.3586    0.2974 C.ar      1 <0>        -0.0937
     35 C27       -13.3868   11.2245    1.4839 C.ar      1 <0>        -0.0283
     36 C28       -12.0962   10.7255    1.4738 C.ar      1 <0>        -0.1343
     37 Cl1       -14.1318   11.6753    2.9857 Cl        1 <0>        -0.0458
     38 N5        -10.6701    7.9516    1.7203 N.4       1 <0>        -0.6378
     39 H2          1.0053    1.8021    0.0021 H         1 <0>         0.1074
     40 H3         -0.5445    1.7859   -0.8732 H         1 <0>         0.0582
     41 H4         -0.5275    1.7763    0.9067 H         1 <0>         0.0579
     42 H5         -2.3226    1.1798    0.0208 H         1 <0>         0.1449
     43 H6         -4.0391    2.1784    0.0336 H         1 <0>         0.1421
     44 H7         -6.9027   -2.5454    0.0491 H         1 <0>         0.1597
     45 H8         -2.4864   -3.7757    0.0163 H         1 <0>         0.1541
     46 H9          0.7813   -4.6219   -0.0311 H         1 <0>         0.1081
     47 H10        -0.7461   -4.4998    0.8748 H         1 <0>         0.0609
     48 H11        -0.7638   -4.4902   -0.9050 H         1 <0>         0.0611
     49 H12        -9.3279   -0.1007    0.0696 H         1 <0>         0.4112
     50 H13        -8.4731   -1.5470    0.0621 H         1 <0>         0.4148
     51 H14        -8.4380    3.7040    0.2619 H         1 <0>         0.1579
     52 H15        -6.4055    7.4606    0.0402 H         1 <0>         0.1596
     53 H16        -4.1765    3.9670   -0.1507 H         1 <0>         0.1690
     54 H17        -8.0991    8.1068    1.0989 H         1 <0>         0.0934
     55 H18        -8.2739    8.0972   -0.6725 H         1 <0>         0.1153
     56 H19        -9.5345   10.2631    1.0978 H         1 <0>         0.1070
     57 H20        -9.6099   10.1044   -0.6735 H         1 <0>         0.1301
     58 H21       -11.7363   10.2270   -1.8426 H         1 <0>         0.1386
     59 H22       -14.0366   11.1041   -1.8246 H         1 <0>         0.1442
     60 H23       -15.0940   11.7442    0.3051 H         1 <0>         0.1443
     61 H24       -11.5520   10.6164    2.4003 H         1 <0>         0.1341
     62 H25       -11.6057    8.3186    1.8106 H         1 <0>         0.4359
     63 H26       -10.6927    6.9470    1.8113 H         1 <0>         0.4438
     64 H27       -10.0845    8.3418    2.4435 H         1 <0>         0.4330
@<TRIPOS>BOND
     1    1    2 1
     2    1   39 1
     3    1   40 1
     4    1   41 1
     5    2    3 1
     6    3   16 ar
     7    3    4 ar
     8    4    5 ar
     9    4   42 1
    10    5   14 ar
    11    5    6 ar
    12    6   11 ar
    13    6    7 ar
    14    7    8 ar
    15    7   43 1
    16    8    9 ar
    17    8   20 1
    18    9   10 ar
    19   10   11 ar
    20   10   19 1
    21   11   12 ar
    22   12   13 ar
    23   12   44 1
    24   13   14 ar
    25   14   15 ar
    26   15   16 ar
    27   15   45 1
    28   16   17 1
    29   17   18 1
    30   18   46 1
    31   18   47 1
    32   18   48 1
    33   19   49 1
    34   19   50 1
    35   20   25 ar
    36   20   21 ar
    37   21   22 ar
    38   21   51 1
    39   22   23 ar
    40   22   26 1
    41   23   24 ar
    42   23   52 1
    43   24   25 ar
    44   25   53 1
    45   26   27 1
    46   27   28 1
    47   27   54 1
    48   27   55 1
    49   28   29 1
    50   28   30 1
    51   28   38 1
    52   30   31 1
    53   30   56 1
    54   30   57 1
    55   31   36 ar
    56   31   32 ar
    57   32   33 ar
    58   32   58 1
    59   33   34 ar
    60   33   59 1
    61   34   35 ar
    62   34   60 1
    63   35   36 ar
    64   35   37 1
    65   36   61 1
    66   38   62 1
    67   38   63 1
    68   38   64 1
@<TRIPOS>MOLECULE
CHEMBL599448
   49    52     0     0     0
SMALL
USER_CHARGES

@<TRIPOS>ATOM
      1 C1          1.1510   -2.3353    0.2956 C.ar      1 <0>        -0.0878
      2 C2          2.2889   -3.0746    0.5580 C.ar      1 <0>        -0.1111
      3 C3          2.1787   -4.3575    1.0640 C.ar      1 <0>        -0.0262
      4 C4          0.9293   -4.8998    1.3069 C.ar      1 <0>        -0.1110
      5 C5         -0.2080   -4.1595    1.0441 C.ar      1 <0>        -0.0870
      6 C6         -0.0972   -2.8777    0.5386 C.ar      1 <0>        -0.1086
      7 C7         -1.3376   -2.0710    0.2527 C.3       1 <0>         0.1614
      8 N1         -1.7708   -2.3133   -1.1256 N.am      1 <0>        -0.7294
      9 C8         -2.8671   -1.6938   -1.6063 C.2       1 <0>         0.4859
     10 O1         -3.4948   -0.9357   -0.8977 O.2       1 <0>        -0.5191
     11 C9         -3.3127   -1.9432   -3.0241 C.3       1 <0>         0.1156
     12 C10        -4.2002   -0.7868   -3.4904 C.3       1 <0>        -0.1067
     13 C11        -5.4091   -0.6677   -2.5571 C.3       1 <0>         0.1266
     14 N2         -6.0921   -1.9673   -2.4996 N.pl3     1 <0>        -0.6700
     15 C12        -5.3105   -3.1612   -2.1496 C.3       1 <0>         0.1492
     16 C13        -4.1027   -3.2524   -3.0875 C.3       1 <0>        -0.1201
     17 C14        -7.4520   -2.0654   -2.7709 C.ar      1 <0>         0.2675
     18 C15        -7.9108   -2.3004   -4.0633 C.ar      1 <0>        -0.2142
     19 C16        -9.2717   -2.3914   -4.2924 C.ar      1 <0>         0.1449
     20 N3        -10.1473   -2.2607   -3.3169 N.ar      1 <0>        -0.5069
     21 C17        -9.7714   -2.0353   -2.0629 C.ar      1 <0>         0.2899
     22 C18        -8.4053   -1.9363   -1.7488 C.ar      1 <0>        -0.1622
     23 C19        -8.3317   -1.6980   -0.3067 C.2       1 <0>        -0.1809
     24 C20        -9.5941   -1.6737    0.1486 C.2       1 <0>         0.0538
     25 N4        -10.4668   -1.8646   -0.8904 N.pl3     1 <0>        -0.5845
     26 H1        -11.4331   -1.8874   -0.8083 H         1 <0>         0.4192
     27 N5         -2.1355   -2.0392   -3.8974 N.3       1 <0>        -0.8293
     28 Cl1         3.6076   -5.2869    1.3932 Cl        1 <0>        -0.0634
     29 H2          1.2370   -1.3322   -0.0951 H         1 <0>         0.1340
     30 H3          3.2640   -2.6509    0.3678 H         1 <0>         0.1370
     31 H4          0.8426   -5.9013    1.7015 H         1 <0>         0.1371
     32 H5         -1.1834   -4.5828    1.2334 H         1 <0>         0.1345
     33 H6         -2.1300   -2.3671    0.9400 H         1 <0>         0.0798
     34 H7         -1.1199   -1.0110    0.3840 H         1 <0>         0.0793
     35 H8         -1.2687   -2.9197   -1.6923 H         1 <0>         0.3971
     36 H9         -3.6298    0.1417   -3.4673 H         1 <0>         0.0697
     37 H10        -4.5430   -0.9785   -4.5072 H         1 <0>         0.0798
     38 H11        -5.0737   -0.3868   -1.5587 H         1 <0>         0.1014
     39 H12        -6.0940    0.0883   -2.9410 H         1 <0>         0.0629
     40 H13        -4.9671   -3.0836   -1.1180 H         1 <0>         0.0509
     41 H14        -5.9304   -4.0504   -2.2645 H         1 <0>         0.0729
     42 H15        -4.4465   -3.4208   -4.1080 H         1 <0>         0.0886
     43 H16        -3.4630   -4.0787   -2.7775 H         1 <0>         0.0704
     44 H17        -7.2116   -2.4103   -4.8791 H         1 <0>         0.1354
     45 H18        -9.6254   -2.5739   -5.2963 H         1 <0>         0.1603
     46 H19        -7.4337   -1.5675    0.2789 H         1 <0>         0.1470
     47 H20        -9.8796   -1.5172    1.1784 H         1 <0>         0.1767
     48 H21        -1.5965   -1.1866   -3.8728 H         1 <0>         0.3485
     49 H22        -1.5657   -2.8344   -3.6502 H         1 <0>         0.3410
@<TRIPOS>BOND
     1    1    6 ar
     2    1    2 ar
     3    1   29 1
     4    2    3 ar
     5    2   30 1
     6    3    4 ar
     7    3   28 1
     8    4    5 ar
     9    4   31 1
    10    5    6 ar
    11    5   32 1
    12    6    7 1
    13    7    8 1
    14    7   33 1
    15    7   34 1
    16    8    9 am
    17    8   35 1
    18    9   10 2
    19    9   11 1
    20   11   16 1
    21   11   12 1
    22   11   27 1
    23   12   13 1
    24   12   36 1
    25   12   37 1
    26   13   14 1
    27   13   38 1
    28   13   39 1
    29   14   15 1
    30   14   17 1
    31   15   16 1
    32   15   40 1
    33   15   41 1
    34   16   42 1
    35   16   43 1
    36   17   22 ar
    37   17   18 ar
    38   18   19 ar
    39   18   44 1
    40   19   20 ar
    41   19   45 1
    42   20   21 ar
    43   21   25 1
    44   21   22 ar
    45   22   23 1
    46   23   24 2
    47   23   46 1
    48   24   25 1
    49   24   47 1
    50   25   26 1
    51   27   48 1
    52   27   49 1
@<TRIPOS>MOLECULE
CHEMBL599448
   50    53     0     0     0
SMALL
USER_CHARGES

@<TRIPOS>ATOM
      1 C1         -0.4501    1.6900    0.0910 C.ar      1 <0>        -0.0842
      2 C2          0.6204    2.5644    0.0909 C.ar      1 <0>        -0.1097
      3 C3          1.9125    2.0755    0.0163 C.ar      1 <0>        -0.0197
      4 C4          2.1323    0.7116   -0.0580 C.ar      1 <0>        -0.1110
      5 C5          1.0610   -0.1617   -0.0578 C.ar      1 <0>        -0.0876
      6 C6         -0.2298    0.3273    0.0166 C.ar      1 <0>        -0.1258
      7 C7         -1.3974   -0.6255    0.0173 C.3       1 <0>         0.1619
      8 N1         -1.8307   -0.8679   -1.3610 N.am      1 <0>        -0.7223
      9 C8         -2.8671   -1.6938   -1.6063 C.2       1 <0>         0.5026
     10 O1         -3.4410   -2.2364   -0.6859 O.2       1 <0>        -0.4616
     11 C9         -3.3127   -1.9432   -3.0241 C.3       1 <0>         0.0481
     12 C10        -4.2002   -0.7868   -3.4904 C.3       1 <0>        -0.1508
     13 C11        -5.4091   -0.6677   -2.5571 C.3       1 <0>         0.1492
     14 N2         -6.0921   -1.9673   -2.4996 N.pl3     1 <0>        -0.6658
     15 C12        -5.3105   -3.1612   -2.1496 C.3       1 <0>         0.1281
     16 C13        -4.1027   -3.2524   -3.0875 C.3       1 <0>        -0.1382
     17 C14        -7.4520   -2.0654   -2.7709 C.ar      1 <0>         0.2468
     18 C15        -7.9108   -2.3004   -4.0633 C.ar      1 <0>        -0.2097
     19 C16        -9.2717   -2.3914   -4.2924 C.ar      1 <0>         0.1453
     20 N3        -10.1473   -2.2607   -3.3169 N.ar      1 <0>        -0.4958
     21 C17        -9.7714   -2.0353   -2.0629 C.ar      1 <0>         0.2937
     22 C18        -8.4053   -1.9363   -1.7488 C.ar      1 <0>        -0.1574
     23 C19        -8.3317   -1.6980   -0.3067 C.2       1 <0>        -0.1915
     24 C20        -9.5941   -1.6737    0.1486 C.2       1 <0>         0.0688
     25 N4        -10.4668   -1.8646   -0.8904 N.pl3     1 <0>        -0.5810
     26 H1        -11.4331   -1.8874   -0.8083 H         1 <0>         0.4240
     27 N5         -2.1355   -2.0392   -3.8974 N.4       1 <0>        -0.6337
     28 Cl1         3.2575    3.1731    0.0155 Cl        1 <0>        -0.0507
     29 H2         -1.4586    2.0713    0.1537 H         1 <0>         0.1359
     30 H3          0.4482    3.6290    0.1486 H         1 <0>         0.1409
     31 H4          3.1407    0.3294   -0.1166 H         1 <0>         0.1403
     32 H5          1.2325   -1.2265   -0.1162 H         1 <0>         0.1345
     33 H6         -1.0969   -1.5681    0.4748 H         1 <0>         0.0920
     34 H7         -2.2200   -0.1917    0.5858 H         1 <0>         0.0919
     35 H8         -1.3716   -0.4339   -2.0971 H         1 <0>         0.3936
     36 H9         -3.6298    0.1417   -3.4673 H         1 <0>         0.0988
     37 H10        -4.5430   -0.9785   -4.5072 H         1 <0>         0.1078
     38 H11        -5.0737   -0.3868   -1.5587 H         1 <0>         0.0648
     39 H12        -6.0940    0.0883   -2.9410 H         1 <0>         0.0947
     40 H13        -4.9671   -3.0836   -1.1180 H         1 <0>         0.1100
     41 H14        -5.9304   -4.0504   -2.2645 H         1 <0>         0.0865
     42 H15        -4.4465   -3.4208   -4.1080 H         1 <0>         0.0998
     43 H16        -3.4630   -4.0787   -2.7775 H         1 <0>         0.0993
     44 H17        -7.2116   -2.4103   -4.8791 H         1 <0>         0.1326
     45 H18        -9.6254   -2.5739   -5.2963 H         1 <0>         0.1633
     46 H19        -7.4337   -1.5675    0.2789 H         1 <0>         0.1475
     47 H20        -9.8796   -1.5172    1.1784 H         1 <0>         0.1809
     48 H21        -1.5498   -2.8012   -3.5900 H         1 <0>         0.4396
     49 H22        -2.4337   -2.2062   -4.8468 H         1 <0>         0.4435
     50 H23        -1.6142   -1.1763   -3.8555 H         1 <0>         0.4299
@<TRIPOS>BOND
     1    1    6 ar
     2    1    2 ar
     3    1   29 1
     4    2    3 ar
     5    2   30 1
     6    3    4 ar
     7    3   28 1
     8    4    5 ar
     9    4   31 1
    10    5    6 ar
    11    5   32 1
    12    6    7 1
    13    7    8 1
    14    7   33 1
    15    7   34 1
    16    8    9 am
    17    8   35 1
    18    9   10 2
    19    9   11 1
    20   11   16 1
    21   11   12 1
    22   11   27 1
    23   12   13 1
    24   12   36 1
    25   12   37 1
    26   13   14 1
    27   13   38 1
    28   13   39 1
    29   14   15 1
    30   14   17 1
    31   15   16 1
    32   15   40 1
    33   15   41 1
    34   16   42 1
    35   16   43 1
    36   17   22 ar
    37   17   18 ar
    38   18   19 ar
    39   18   44 1
    40   19   20 ar
    41   19   45 1
    42   20   21 ar
    43   21   25 1
    44   21   22 ar
    45   22   23 1
    46   23   24 2
    47   23   46 1
    48   24   25 1
    49   24   47 1
    50   25   26 1
    51   27   48 1
    52   27   49 1
    53   27   50 1
@<TRIPOS>MOLECULE
CHEMBL252055
   56    60     0     0     0
SMALL
USER_CHARGES

@<TRIPOS>ATOM
      1 C1         -0.0225    1.8097    0.0120 C.3       1 <0>        -0.1464
      2 S1          0.0021   -0.0041    0.0020 S.3       1 <0>         0.0184
      3 C2          0.8484   -0.4107   -1.4889 C.ar      1 <0>         0.3224
      4 N1          1.2837    0.5796   -2.2667 N.ar      1 <0>        -0.5343
      5 C3          1.9229    0.3379   -3.3923 C.ar      1 <0>         0.2360
      6 C4          2.1419   -1.0009   -3.7658 C.ar      1 <0>        -0.2317
      7 C5          2.8151   -1.3392   -4.9495 C.ar      1 <0>        -0.0018
      8 C6          2.9869   -2.6849   -5.2387 C.ar      1 <0>        -0.1018
      9 C7          2.4852   -3.6562   -4.3441 C.ar      1 <0>         0.2705
     10 N2          1.8548   -3.3109   -3.2368 N.ar      1 <0>        -0.4629
     11 C8          1.6645   -2.0319   -2.9134 C.ar      1 <0>         0.3655
     12 N3          1.0298   -1.6838   -1.7865 N.ar      1 <0>        -0.4820
     13 C9          2.6699   -5.0924   -4.6553 C.ar      1 <0>        -0.0688
     14 C10         2.6327   -5.5326   -5.9783 C.ar      1 <0>        -0.0771
     15 C11         2.8060   -6.8718   -6.2619 C.ar      1 <0>        -0.1194
     16 C12         3.0157   -7.7773   -5.2372 C.ar      1 <0>        -0.0599
     17 C13         3.0532   -7.3469   -3.9229 C.ar      1 <0>        -0.1039
     18 C14         2.8875   -6.0093   -3.6271 C.ar      1 <0>        -0.0675
     19 C15         3.2037   -9.2386   -5.5539 C.3       1 <0>         0.0960
     20 N4          4.6315   -9.5150   -5.7612 N.3       1 <0>        -0.6809
     21 C16         4.8533  -10.9334   -6.0727 C.3       1 <0>         0.0677
     22 C17         6.3485  -11.1819   -6.2815 C.3       1 <0>        -0.0244
     23 C18         6.5761  -12.6369   -6.6010 C.2       1 <0>         0.2306
     24 N5          6.7993  -13.6001   -5.7078 N.2       1 <0>        -0.5395
     25 C19         6.9548  -14.7458   -6.3201 C.2       1 <0>         0.2640
     26 N6          6.8317  -14.5326   -7.6416 N.pl3     1 <0>        -0.4849
     27 H1          6.8988  -15.1958   -8.3463 H         1 <0>         0.4430
     28 N7          6.5810  -13.1597   -7.7991 N.2       1 <0>        -0.3147
     29 C20         3.6902   -3.1001   -6.4757 C.ar      1 <0>        -0.0514
     30 C21         4.7183   -4.0397   -6.4143 C.ar      1 <0>        -0.0869
     31 C22         5.3692   -4.4227   -7.5693 C.ar      1 <0>        -0.1151
     32 C23         5.0036   -3.8759   -8.7863 C.ar      1 <0>        -0.1099
     33 C24         3.9842   -2.9431   -8.8533 C.ar      1 <0>        -0.1186
     34 C25         3.3223   -2.5567   -7.7057 C.ar      1 <0>        -0.1073
     35 H2          1.0001    2.1870    0.0043 H         1 <0>         0.0912
     36 H3         -0.5497    2.1708   -0.8711 H         1 <0>         0.0911
     37 H4         -0.5327    2.1613    0.9088 H         1 <0>         0.1141
     38 H5          2.2708    1.1489   -4.0150 H         1 <0>         0.1843
     39 H6          3.1879   -0.5750   -5.6154 H         1 <0>         0.1543
     40 H7          2.4684   -4.8268   -6.7790 H         1 <0>         0.1314
     41 H8          2.7774   -7.2139   -7.2859 H         1 <0>         0.1239
     42 H9          3.2169   -8.0585   -3.1272 H         1 <0>         0.1302
     43 H10         2.9213   -5.6738   -2.6011 H         1 <0>         0.1317
     44 H11         2.8338   -9.8407   -4.7239 H         1 <0>         0.0851
     45 H12         2.6501   -9.4884   -6.4590 H         1 <0>         0.0424
     46 H13         5.0135   -8.9223   -6.4828 H         1 <0>         0.3437
     47 H14         4.4949  -11.5472   -5.2464 H         1 <0>         0.0804
     48 H15         4.3112  -11.1949   -6.9814 H         1 <0>         0.0340
     49 H16         6.7070  -10.5680   -7.1078 H         1 <0>         0.0865
     50 H17         6.8907  -10.9203   -5.3727 H         1 <0>         0.1031
     51 H18         7.1487  -15.6968   -5.8464 H         1 <0>         0.2242
     52 H19         5.0050   -4.4667   -5.4647 H         1 <0>         0.1248
     53 H20         6.1658   -5.1505   -7.5230 H         1 <0>         0.1268
     54 H21         5.5163   -4.1781   -9.6875 H         1 <0>         0.1241
     55 H22         3.7033   -2.5193   -9.8062 H         1 <0>         0.1258
     56 H23         2.5236   -1.8318   -7.7599 H         1 <0>         0.1241
@<TRIPOS>BOND
     1    1    2 1
     2    1   35 1
     3    1   36 1
     4    1   37 1
     5    2    3 1
     6    3   12 ar
     7    3    4 ar
     8    4    5 ar
     9    5    6 ar
    10    5   38 1
    11    6   11 ar
    12    6    7 ar
    13    7    8 ar
    14    7   39 1
    15    8    9 ar
    16    8   29 1
    17    9   10 ar
    18    9   13 1
    19   10   11 ar
    20   11   12 ar
    21   13   18 ar
    22   13   14 ar
    23   14   15 ar
    24   14   40 1
    25   15   16 ar
    26   15   41 1
    27   16   17 ar
    28   16   19 1
    29   17   18 ar
    30   17   42 1
    31   18   43 1
    32   19   20 1
    33   19   44 1
    34   19   45 1
    35   20   21 1
    36   20   46 1
    37   21   22 1
    38   21   47 1
    39   21   48 1
    40   22   23 1
    41   22   49 1
    42   22   50 1
    43   23   28 2
    44   23   24 1
    45   24   25 2
    46   25   26 1
    47   25   51 1
    48   26   27 1
    49   26   28 1
    50   29   34 ar
    51   29   30 ar
    52   30   31 ar
    53   30   52 1
    54   31   32 ar
    55   31   53 1
    56   32   33 ar
    57   32   54 1
    58   33   34 ar
    59   33   55 1
    60   34   56 1
@<TRIPOS>MOLECULE
CHEMBL252055
   57    61     0     0     0
SMALL
USER_CHARGES

@<TRIPOS>ATOM
      1 C1         -0.0225    1.8097    0.0120 C.3       1 <0>        -0.1490
      2 S1          0.0021   -0.0041    0.0020 S.3       1 <0>         0.0303
      3 C2         -1.7016   -0.4536    0.0159 C.ar      1 <0>         0.3271
      4 N1         -2.6174    0.5141    0.0243 N.ar      1 <0>        -0.5277
      5 C3         -3.9053    0.2400    0.0344 C.ar      1 <0>         0.2400
      6 C4         -4.3044   -1.1092    0.0361 C.ar      1 <0>        -0.2285
      7 C5         -5.6573   -1.4815    0.0460 C.ar      1 <0>         0.0088
      8 C6         -5.9597   -2.8353    0.0465 C.ar      1 <0>        -0.1086
      9 C7         -4.9101   -3.7806    0.0372 C.ar      1 <0>         0.2462
     10 N2         -3.6450   -3.4035    0.0283 N.ar      1 <0>        -0.4555
     11 C8         -3.3020   -2.1154    0.0269 C.ar      1 <0>         0.3662
     12 N3         -2.0179   -1.7350    0.0120 N.ar      1 <0>        -0.4843
     13 C9         -5.2358   -5.2255    0.0378 C.ar      1 <0>        -0.0180
     14 C10        -6.3516   -5.6914    0.7329 C.ar      1 <0>        -0.0776
     15 C11        -6.6501   -7.0385    0.7294 C.ar      1 <0>        -0.0959
     16 C12        -5.8450   -7.9265    0.0386 C.ar      1 <0>        -0.1524
     17 C13        -4.7366   -7.4705   -0.6524 C.ar      1 <0>        -0.0957
     18 C14        -4.4313   -6.1249   -0.6615 C.ar      1 <0>        -0.0703
     19 C15        -6.1764   -9.3966    0.0392 C.3       1 <0>         0.0460
     20 N4         -7.0625   -9.6993   -1.0927 N.4       1 <0>        -0.5071
     21 C16        -7.3856  -11.1323   -1.0921 C.3       1 <0>        -0.0030
     22 C17        -8.3084  -11.4476   -2.2710 C.3       1 <0>        -0.0463
     23 C18        -8.6398  -12.9177   -2.2704 C.2       1 <0>         0.2067
     24 N5         -7.9422  -13.8689   -2.8900 N.2       1 <0>        -0.5400
     25 C19        -8.5025  -15.0336   -2.6871 C.2       1 <0>         0.2815
     26 N6         -9.5898  -14.8454   -1.9193 N.pl3     1 <0>        -0.4702
     27 H1        -10.2048  -15.5266   -1.6053 H         1 <0>         0.4517
     28 N7         -9.6551  -13.4671   -1.6573 N.2       1 <0>        -0.2988
     29 C20        -7.3718   -3.2860    0.0573 C.ar      1 <0>        -0.0510
     30 C21        -7.8088   -4.2401   -0.8605 C.ar      1 <0>        -0.0996
     31 C22        -9.1245   -4.6562   -0.8454 C.ar      1 <0>        -0.1200
     32 C23       -10.0092   -4.1282    0.0777 C.ar      1 <0>        -0.1088
     33 C24        -9.5813   -3.1812    0.9908 C.ar      1 <0>        -0.1117
     34 C25        -8.2666   -2.7617    0.9890 C.ar      1 <0>        -0.1033
     35 H2          1.0001    2.1870    0.0043 H         1 <0>         0.1178
     36 H3         -0.5497    2.1708   -0.8711 H         1 <0>         0.0934
     37 H4         -0.5327    2.1613    0.9088 H         1 <0>         0.0934
     38 H5         -4.6386    1.0328    0.0415 H         1 <0>         0.1881
     39 H6         -6.4393   -0.7367    0.0534 H         1 <0>         0.1578
     40 H7         -6.9805   -4.9992    1.2732 H         1 <0>         0.1444
     41 H8         -7.5139   -7.4005    1.2673 H         1 <0>         0.1366
     42 H9         -4.1117   -8.1686   -1.1895 H         1 <0>         0.1381
     43 H10        -3.5683   -5.7695   -1.2049 H         1 <0>         0.1440
     44 H11        -5.2579   -9.9762   -0.0533 H         1 <0>         0.1411
     45 H12        -6.6772   -9.6558    0.9721 H         1 <0>         0.1400
     46 H13        -7.9127   -9.1628   -1.0071 H         1 <0>         0.4287
     47 H14        -6.4671  -11.7119   -1.1846 H         1 <0>         0.1397
     48 H15        -7.8863  -11.3915   -0.1593 H         1 <0>         0.1360
     49 H16        -9.2269  -10.8680   -2.1785 H         1 <0>         0.1110
     50 H17        -7.8077  -11.1884   -3.2038 H         1 <0>         0.1165
     51 H18        -8.1528  -15.9810   -3.0700 H         1 <0>         0.2321
     52 H19        -7.1192   -4.6525   -1.5821 H         1 <0>         0.1209
     53 H20        -9.4642   -5.3953   -1.5559 H         1 <0>         0.1239
     54 H21       -11.0381   -4.4564    0.0854 H         1 <0>         0.1268
     55 H22       -10.2765   -2.7723    1.7090 H         1 <0>         0.1304
     56 H23        -7.9325   -2.0256    1.7052 H         1 <0>         0.1282
     57 H24        -6.5989   -9.4594   -1.9562 H         1 <0>         0.4301
@<TRIPOS>BOND
     1    1    2 1
     2    1   35 1
     3    1   36 1
     4    1   37 1
     5    2    3 1
     6    3   12 ar
     7    3    4 ar
     8    4    5 ar
     9    5    6 ar
    10    5   38 1
    11    6   11 ar
    12    6    7 ar
    13    7    8 ar
    14    7   39 1
    15    8    9 ar
    16    8   29 1
    17    9   10 ar
    18    9   13 1
    19   10   11 ar
    20   11   12 ar
    21   13   18 ar
    22   13   14 ar
    23   14   15 ar
    24   14   40 1
    25   15   16 ar
    26   15   41 1
    27   16   17 ar
    28   16   19 1
    29   17   18 ar
    30   17   42 1
    31   18   43 1
    32   19   20 1
    33   19   44 1
    34   19   45 1
    35   20   21 1
    36   20   46 1
    37   20   57 1
    38   21   22 1
    39   21   47 1
    40   21   48 1
    41   22   23 1
    42   22   49 1
    43   22   50 1
    44   23   28 2
    45   23   24 1
    46   24   25 2
    47   25   26 1
    48   25   51 1
    49   26   27 1
    50   26   28 1
    51   29   34 ar
    52   29   30 ar
    53   30   31 ar
    54   30   52 1
    55   31   32 ar
    56   31   53 1
    57   32   33 ar
    58   32   54 1
    59   33   34 ar
    60   33   55 1
    61   34   56 1
@<TRIPOS>MOLECULE
CHEMBL252055
   57    61     0     0     0
SMALL
USER_CHARGES

@<TRIPOS>ATOM
      1 C1         -0.0225    1.8097    0.0120 C.3       1 <0>        -0.1491
      2 S1          0.0021   -0.0041    0.0020 S.3       1 <0>         0.0312
      3 C2          0.8484   -0.4107   -1.4889 C.ar      1 <0>         0.3273
      4 N1          1.2837    0.5796   -2.2667 N.ar      1 <0>        -0.5274
      5 C3          1.9229    0.3379   -3.3923 C.ar      1 <0>         0.2402
      6 C4          2.1419   -1.0009   -3.7658 C.ar      1 <0>        -0.2286
      7 C5          2.8151   -1.3392   -4.9495 C.ar      1 <0>         0.0093
      8 C6          2.9869   -2.6849   -5.2387 C.ar      1 <0>        -0.1094
      9 C7          2.4852   -3.6562   -4.3441 C.ar      1 <0>         0.2455
     10 N2          1.8548   -3.3109   -3.2368 N.ar      1 <0>        -0.4552
     11 C8          1.6645   -2.0319   -2.9134 C.ar      1 <0>         0.3664
     12 N3          1.0298   -1.6838   -1.7865 N.ar      1 <0>        -0.4844
     13 C9          2.6699   -5.0924   -4.6553 C.ar      1 <0>        -0.0170
     14 C10         2.6327   -5.5326   -5.9783 C.ar      1 <0>        -0.0777
     15 C11         2.8060   -6.8718   -6.2619 C.ar      1 <0>        -0.0961
     16 C12         3.0157   -7.7773   -5.2372 C.ar      1 <0>        -0.1536
     17 C13         3.0532   -7.3469   -3.9229 C.ar      1 <0>        -0.0953
     18 C14         2.8875   -6.0093   -3.6271 C.ar      1 <0>        -0.0704
     19 C15         3.2037   -9.2386   -5.5539 C.3       1 <0>         0.0462
     20 N4          4.6315   -9.5150   -5.7612 N.4       1 <0>        -0.5082
     21 C16         4.8147  -10.9395   -6.0698 C.3       1 <0>        -0.0021
     22 C17         6.3018  -11.2273   -6.2858 C.3       1 <0>        -0.0622
     23 C18         6.4898  -12.6887   -6.6024 C.2       1 <0>         0.2611
     24 N5          6.0754  -13.6924   -5.8727 N.2       1 <0>        -0.5296
     25 C19         6.4134  -14.8431   -6.4532 C.2       1 <0>         0.2151
     26 N6          7.0505  -14.5863   -7.5653 N.2       1 <0>        -0.2912
     27 H1          7.5138  -12.6836   -8.4086 H         1 <0>         0.4454
     28 N7          7.1075  -13.1883   -7.6868 N.pl3     1 <0>        -0.4693
     29 C20         3.6902   -3.1001   -6.4757 C.ar      1 <0>        -0.0502
     30 C21         4.7183   -4.0397   -6.4143 C.ar      1 <0>        -0.0998
     31 C22         5.3692   -4.4227   -7.5693 C.ar      1 <0>        -0.1205
     32 C23         5.0036   -3.8759   -8.7863 C.ar      1 <0>        -0.1093
     33 C24         3.9842   -2.9431   -8.8533 C.ar      1 <0>        -0.1114
     34 C25         3.3223   -2.5567   -7.7057 C.ar      1 <0>        -0.1030
     35 H2          1.0001    2.1870    0.0043 H         1 <0>         0.0935
     36 H3         -0.5497    2.1708   -0.8711 H         1 <0>         0.0935
     37 H4         -0.5327    2.1613    0.9088 H         1 <0>         0.1180
     38 H5          2.2708    1.1489   -4.0150 H         1 <0>         0.1882
     39 H6          3.1879   -0.5750   -5.6154 H         1 <0>         0.1578
     40 H7          2.4684   -4.8268   -6.7790 H         1 <0>         0.1444
     41 H8          2.7774   -7.2139   -7.2859 H         1 <0>         0.1362
     42 H9          3.2169   -8.0585   -3.1272 H         1 <0>         0.1385
     43 H10         2.9213   -5.6738   -2.6011 H         1 <0>         0.1442
     44 H11         2.8338   -9.8407   -4.7239 H         1 <0>         0.1430
     45 H12         2.6501   -9.4884   -6.4590 H         1 <0>         0.1405
     46 H13         4.9739   -8.9577   -6.5294 H         1 <0>         0.4272
     47 H14         4.4449  -11.5416   -5.2399 H         1 <0>         0.1499
     48 H15         4.2612  -11.1892   -6.9750 H         1 <0>         0.1366
     49 H16         6.6717  -10.6252   -7.1157 H         1 <0>         0.1101
     50 H17         6.8554  -10.9776   -5.3806 H         1 <0>         0.1238
     51 H18         6.1968  -15.8282   -6.0671 H         1 <0>         0.2279
     52 H19         5.0050   -4.4667   -5.4647 H         1 <0>         0.1208
     53 H20         6.1658   -5.1505   -7.5230 H         1 <0>         0.1232
     54 H21         5.5163   -4.1781   -9.6875 H         1 <0>         0.1266
     55 H22         3.7033   -2.5193   -9.8062 H         1 <0>         0.1305
     56 H23         2.5236   -1.8318   -7.7599 H         1 <0>         0.1285
     57 H24         5.1440   -9.2838   -4.9233 H         1 <0>         0.4306
@<TRIPOS>BOND
     1    1    2 1
     2    1   35 1
     3    1   36 1
     4    1   37 1
     5    2    3 1
     6    3   12 ar
     7    3    4 ar
     8    4    5 ar
     9    5    6 ar
    10    5   38 1
    11    6   11 ar
    12    6    7 ar
    13    7    8 ar
    14    7   39 1
    15    8    9 ar
    16    8   29 1
    17    9   10 ar
    18    9   13 1
    19   10   11 ar
    20   11   12 ar
    21   13   18 ar
    22   13   14 ar
    23   14   15 ar
    24   14   40 1
    25   15   16 ar
    26   15   41 1
    27   16   17 ar
    28   16   19 1
    29   17   18 ar
    30   17   42 1
    31   18   43 1
    32   19   20 1
    33   19   44 1
    34   19   45 1
    35   20   21 1
    36   20   46 1
    37   20   57 1
    38   21   22 1
    39   21   47 1
    40   21   48 1
    41   22   49 1
    42   22   50 1
    43   22   23 1
    44   23   24 2
    45   23   28 1
    46   24   25 1
    47   25   51 1
    48   25   26 2
    49   26   28 1
    50   27   28 1
    51   29   34 ar
    52   29   30 ar
    53   30   31 ar
    54   30   52 1
    55   31   32 ar
    56   31   53 1
    57   32   33 ar
    58   32   54 1
    59   33   34 ar
    60   33   55 1
    61   34   56 1
@<TRIPOS>MOLECULE
CHEMBL252055
   56    60     0     0     0
SMALL
USER_CHARGES

@<TRIPOS>ATOM
      1 C1         -0.0225    1.8097    0.0120 C.3       1 <0>        -0.1466
      2 S1          0.0021   -0.0041    0.0020 S.3       1 <0>         0.0191
      3 C2          0.8484   -0.4107   -1.4889 C.ar      1 <0>         0.3227
      4 N1          1.2837    0.5796   -2.2667 N.ar      1 <0>        -0.5341
      5 C3          1.9229    0.3379   -3.3923 C.ar      1 <0>         0.2361
      6 C4          2.1419   -1.0009   -3.7658 C.ar      1 <0>        -0.2318
      7 C5          2.8151   -1.3392   -4.9495 C.ar      1 <0>        -0.0013
      8 C6          2.9869   -2.6849   -5.2387 C.ar      1 <0>        -0.1027
      9 C7          2.4852   -3.6562   -4.3441 C.ar      1 <0>         0.2698
     10 N2          1.8548   -3.3109   -3.2368 N.ar      1 <0>        -0.4626
     11 C8          1.6645   -2.0319   -2.9134 C.ar      1 <0>         0.3657
     12 N3          1.0298   -1.6838   -1.7865 N.ar      1 <0>        -0.4820
     13 C9          2.6699   -5.0924   -4.6553 C.ar      1 <0>        -0.0678
     14 C10         2.6327   -5.5326   -5.9783 C.ar      1 <0>        -0.0773
     15 C11         2.8060   -6.8718   -6.2619 C.ar      1 <0>        -0.1196
     16 C12         3.0157   -7.7773   -5.2372 C.ar      1 <0>        -0.0612
     17 C13         3.0532   -7.3469   -3.9229 C.ar      1 <0>        -0.1034
     18 C14         2.8875   -6.0093   -3.6271 C.ar      1 <0>        -0.0675
     19 C15         3.2037   -9.2386   -5.5539 C.3       1 <0>         0.0965
     20 N4          4.6315   -9.5150   -5.7612 N.3       1 <0>        -0.6818
     21 C16         4.8533  -10.9334   -6.0727 C.3       1 <0>         0.0678
     22 C17         6.3485  -11.1819   -6.2815 C.3       1 <0>        -0.0398
     23 C18         6.5761  -12.6369   -6.6010 C.2       1 <0>         0.2869
     24 N5          6.1841  -13.6531   -5.8763 N.2       1 <0>        -0.5370
     25 C19         6.5550  -14.7930   -6.4580 C.2       1 <0>         0.2066
     26 N6          7.1910  -14.5166   -7.5660 N.2       1 <0>        -0.3173
     27 H1          7.6091  -12.6001   -8.4018 H         1 <0>         0.4405
     28 N7          7.2122  -13.1173   -7.6835 N.pl3     1 <0>        -0.4815
     29 C20         3.6902   -3.1001   -6.4757 C.ar      1 <0>        -0.0507
     30 C21         4.7183   -4.0397   -6.4143 C.ar      1 <0>        -0.0871
     31 C22         5.3692   -4.4227   -7.5693 C.ar      1 <0>        -0.1156
     32 C23         5.0036   -3.8759   -8.7863 C.ar      1 <0>        -0.1104
     33 C24         3.9842   -2.9431   -8.8533 C.ar      1 <0>        -0.1183
     34 C25         3.3223   -2.5567   -7.7057 C.ar      1 <0>        -0.1070
     35 H2          1.0001    2.1870    0.0043 H         1 <0>         0.0913
     36 H3         -0.5497    2.1708   -0.8711 H         1 <0>         0.0911
     37 H4         -0.5327    2.1613    0.9088 H         1 <0>         0.1143
     38 H5          2.2708    1.1489   -4.0150 H         1 <0>         0.1844
     39 H6          3.1879   -0.5750   -5.6154 H         1 <0>         0.1543
     40 H7          2.4684   -4.8268   -6.7790 H         1 <0>         0.1314
     41 H8          2.7774   -7.2139   -7.2859 H         1 <0>         0.1235
     42 H9          3.2169   -8.0585   -3.1272 H         1 <0>         0.1306
     43 H10         2.9213   -5.6738   -2.6011 H         1 <0>         0.1319
     44 H11         2.8338   -9.8407   -4.7239 H         1 <0>         0.0871
     45 H12         2.6501   -9.4884   -6.4590 H         1 <0>         0.0430
     46 H13         5.0135   -8.9223   -6.4828 H         1 <0>         0.3419
     47 H14         4.4949  -11.5472   -5.2464 H         1 <0>         0.0925
     48 H15         4.3112  -11.1949   -6.9814 H         1 <0>         0.0332
     49 H16         6.7070  -10.5680   -7.1078 H         1 <0>         0.0852
     50 H17         6.8907  -10.9203   -5.3727 H         1 <0>         0.1118
     51 H18         6.3620  -15.7845   -6.0758 H         1 <0>         0.2202
     52 H19         5.0050   -4.4667   -5.4647 H         1 <0>         0.1247
     53 H20         6.1658   -5.1505   -7.5230 H         1 <0>         0.1261
     54 H21         5.5163   -4.1781   -9.6875 H         1 <0>         0.1239
     55 H22         3.7033   -2.5193   -9.8062 H         1 <0>         0.1260
     56 H23         2.5236   -1.8318   -7.7599 H         1 <0>         0.1244
@<TRIPOS>BOND
     1    1    2 1
     2    1   35 1
     3    1   36 1
     4    1   37 1
     5    2    3 1
     6    3   12 ar
     7    3    4 ar
     8    4    5 ar
     9    5    6 ar
    10    5   38 1
    11    6   11 ar
    12    6    7 ar
    13    7    8 ar
    14    7   39 1
    15    8    9 ar
    16    8   29 1
    17    9   10 ar
    18    9   13 1
    19   10   11 ar
    20   11   12 ar
    21   13   18 ar
    22   13   14 ar
    23   14   15 ar
    24   14   40 1
    25   15   16 ar
    26   15   41 1
    27   16   17 ar
    28   16   19 1
    29   17   18 ar
    30   17   42 1
    31   18   43 1
    32   19   20 1
    33   19   44 1
    34   19   45 1
    35   20   21 1
    36   20   46 1
    37   21   22 1
    38   21   47 1
    39   21   48 1
    40   22   49 1
    41   22   50 1
    42   22   23 1
    43   23   24 2
    44   23   28 1
    45   24   25 1
    46   25   51 1
    47   25   26 2
    48   26   28 1
    49   27   28 1
    50   29   34 ar
    51   29   30 ar
    52   30   31 ar
    53   30   52 1
    54   31   32 ar
    55   31   53 1
    56   32   33 ar
    57   32   54 1
    58   33   34 ar
    59   33   55 1
    60   34   56 1
@<TRIPOS>MOLECULE
CHEMBL523586
   48    51     0     0     0
SMALL
USER_CHARGES

@<TRIPOS>ATOM
      1 C1          0.3742    1.8563   -0.3947 C.ar      1 <0>        -0.0820
      2 C2          1.5655    2.5384   -0.2295 C.ar      1 <0>        -0.1253
      3 C3          2.7614    1.8459   -0.2007 C.ar      1 <0>        -0.0734
      4 C4          2.7677    0.4705   -0.3374 C.ar      1 <0>        -0.1477
      5 C5          1.5755   -0.2135   -0.5029 C.ar      1 <0>         0.1090
      6 C6          0.3780    0.4813   -0.5312 C.ar      1 <0>        -0.1453
      7 F1          1.5804   -1.5578   -0.6371 F         1 <0>        -0.1323
      8 C7          4.0590    2.5908   -0.0206 C.3       1 <0>        -0.0838
      9 C8          4.3812    2.7006    1.4710 C.3       1 <0>         0.1217
     10 H1          4.3860    1.7056    1.9159 H         1 <0>         0.1245
     11 C9          5.7571    3.3456    1.6494 C.3       1 <0>        -0.0222
     12 N1          6.0155    3.5605    3.0795 N.4       1 <0>        -0.6348
     13 N2          3.3660    3.5256    2.1305 N.am      1 <0>        -0.7308
     14 C10         3.1241    3.3719    3.4475 C.2       1 <0>         0.6127
     15 O1          3.7492    2.5477    4.0889 O.2       1 <0>        -0.5334
     16 C11         2.1084    4.1972    4.1073 C.2       1 <0>        -0.2765
     17 C12         1.7166    4.1988    5.4384 C.2       1 <0>        -0.0193
     18 C13         0.7374    5.0665    5.8334 C.2       1 <0>        -0.1492
     19 C14         0.1742    5.9112    4.8877 C.2       1 <0>        -0.0142
     20 S1          1.0638    5.4636    3.4060 S.3       1 <0>         0.1722
     21 C15        -0.8841    6.9231    5.0627 C.ar      1 <0>         0.0347
     22 C16        -0.8339    7.8477    6.1104 C.ar      1 <0>        -0.1479
     23 C17        -1.8473    8.7790    6.2372 C.ar      1 <0>         0.1417
     24 N3         -2.8611    8.8195    5.3972 N.ar      1 <0>        -0.4753
     25 C18        -2.9688    7.9716    4.3826 C.ar      1 <0>         0.2910
     26 C19        -1.9774    6.9948    4.1763 C.ar      1 <0>        -0.1239
     27 C20        -2.3832    6.2417    2.9926 C.2       1 <0>        -0.2115
     28 C21        -3.5377    6.7805    2.5641 C.2       1 <0>         0.0888
     29 N4         -3.9054    7.8085    3.3896 N.pl3     1 <0>        -0.5767
     30 H2         -4.7029    8.3502    3.2824 H         1 <0>         0.4275
     31 Br1         0.1609    5.1146    7.6337 Br        1 <0>         0.0017
     32 H3         -0.5600    2.3979   -0.4126 H         1 <0>         0.1383
     33 H4          1.5617    3.6132   -0.1233 H         1 <0>         0.1255
     34 H5          3.7022   -0.0703   -0.3156 H         1 <0>         0.1375
     35 H6         -0.5527   -0.0513   -0.6599 H         1 <0>         0.1410
     36 H7          4.8603    2.0524   -0.5268 H         1 <0>         0.1097
     37 H8          3.9667    3.5897   -0.4469 H         1 <0>         0.0977
     38 H9          6.5227    2.6886    1.2367 H         1 <0>         0.1521
     39 H10         5.7801    4.3026    1.1282 H         1 <0>         0.1404
     40 H11         5.9942    2.6746    3.5620 H         1 <0>         0.4430
     41 H12         6.9229    3.9858    3.1971 H         1 <0>         0.4376
     42 H13         2.8678    4.1824    1.6194 H         1 <0>         0.4147
     43 H14         2.1762    3.5272    6.1484 H         1 <0>         0.1600
     44 H15        -0.0133    7.8341    6.8124 H         1 <0>         0.1462
     45 H16        -1.8070    9.4925    7.0470 H         1 <0>         0.1736
     46 H17        -1.8562    5.4112    2.5466 H         1 <0>         0.1500
     47 H18        -4.0968    6.4457    1.7029 H         1 <0>         0.1860
     48 H19         5.3068    4.1687    3.4616 H         1 <0>         0.4268
@<TRIPOS>BOND
     1    1    6 ar
     2    1    2 ar
     3    1   32 1
     4    2    3 ar
     5    2   33 1
     6    3    4 ar
     7    3    8 1
     8    4    5 ar
     9    4   34 1
    10    5    6 ar
    11    5    7 1
    12    6   35 1
    13    8    9 1
    14    8   36 1
    15    8   37 1
    16    9   10 1
    17    9   11 1
    18    9   13 1
    19   11   12 1
    20   11   38 1
    21   11   39 1
    22   12   40 1
    23   12   41 1
    24   12   48 1
    25   13   14 am
    26   13   42 1
    27   14   15 2
    28   14   16 1
    29   16   20 1
    30   16   17 2
    31   17   18 1
    32   17   43 1
    33   18   19 2
    34   18   31 1
    35   19   20 1
    36   19   21 1
    37   21   26 ar
    38   21   22 ar
    39   22   23 ar
    40   22   44 1
    41   23   24 ar
    42   23   45 1
    43   24   25 ar
    44   25   29 1
    45   25   26 ar
    46   26   27 1
    47   27   28 2
    48   27   46 1
    49   28   29 1
    50   28   47 1
    51   29   30 1
@<TRIPOS>MOLECULE
CHEMBL506077
   74    81     0     0     0
SMALL
USER_CHARGES

@<TRIPOS>ATOM
      1 C1         -0.0167    1.3792    0.0096 C.ar      1 <0>        -0.1075
      2 C2          1.1686    2.0926    0.0021 C.ar      1 <0>        -0.1117
      3 C3          2.3774    1.4273   -0.0130 C.ar      1 <0>        -0.1007
      4 C4          2.4027    0.0331   -0.0207 C.ar      1 <0>        -0.0531
      5 C5          1.2048   -0.6804   -0.0131 C.ar      1 <0>        -0.0979
      6 C6          0.0021   -0.0041    0.0020 C.ar      1 <0>        -0.1222
      7 C7          3.6976   -0.6873   -0.0375 C.ar      1 <0>        -0.0880
      8 C8          4.6832   -0.3453   -0.9637 C.ar      1 <0>        -0.0036
      9 C9          5.8807   -1.0537   -0.9352 C.ar      1 <0>        -0.0814
     10 C10         6.0621   -2.0835    0.0163 C.ar      1 <0>         0.2092
     11 C11         7.3365   -2.8113    0.0182 C.2       1 <0>        -0.1555
     12 C12         8.2922   -2.4985   -0.8622 C.2       1 <0>         0.1448
     13 N1          8.1430   -1.5000   -1.7996 N.am      1 <0>        -0.4928
     14 C13         6.9753   -0.7619   -1.8753 C.2       1 <0>         0.3091
     15 N2          7.0941    0.1108   -2.8403 N.2       1 <0>        -0.2484
     16 N3          8.3615   -0.0506   -3.4156 N.am      1 <0>        -0.5284
     17 C14         8.9833   -1.0478   -2.7556 C.2       1 <0>         0.6564
     18 O1         10.1052   -1.4664   -2.9807 O.2       1 <0>        -0.5215
     19 N4          5.0992   -2.3771    0.8804 N.ar      1 <0>        -0.4537
     20 C15         3.9492   -1.7199    0.8843 C.ar      1 <0>         0.1961
     21 C16         2.9074   -2.0823    1.8731 C.ar      1 <0>        -0.0139
     22 C17         2.0785   -1.0974    2.4096 C.ar      1 <0>        -0.0803
     23 C18         1.1099   -1.4411    3.3303 C.ar      1 <0>        -0.1003
     24 C19         0.9603   -2.7596    3.7214 C.ar      1 <0>        -0.1480
     25 C20         1.7795   -3.7411    3.1928 C.ar      1 <0>        -0.0969
     26 C21         2.7478   -3.4106    2.2670 C.ar      1 <0>        -0.0736
     27 C22        -0.0992   -3.1282    4.7278 C.3       1 <0>         0.0426
     28 N5         -1.3495   -3.4500    4.0270 N.4       1 <0>        -0.3835
     29 C23        -1.8497   -2.2499    3.3459 C.3       1 <0>        -0.0113
     30 C24        -3.1080   -2.5987    2.5480 C.3       1 <0>        -0.1379
     31 C25        -4.1806   -3.1299    3.5032 C.3       1 <0>         0.0021
     32 C26        -3.6216   -4.3367    4.2624 C.3       1 <0>        -0.1402
     33 C27        -2.3444   -3.9235    4.9968 C.3       1 <0>        -0.0033
     34 C28        -5.3947   -3.5488    2.7149 C.2       1 <0>         0.2197
     35 N6         -6.6150   -3.0398    2.8520 N.2       1 <0>        -0.5190
     36 C29        -7.4406   -3.6284    2.0111 C.2       1 <0>         0.3521
     37 N7         -6.7338   -4.5442    1.3102 N.pl3     1 <0>        -0.4477
     38 H1         -7.0706   -5.1337    0.6175 H         1 <0>         0.4543
     39 N8         -5.4136   -4.4671    1.7830 N.2       1 <0>        -0.3001
     40 C30        -8.8845   -3.3398    1.8606 C.ar      1 <0>         0.1603
     41 C31        -9.4801   -2.3591    2.6531 C.ar      1 <0>        -0.1102
     42 C32       -10.8312   -2.1003    2.5003 C.ar      1 <0>        -0.0738
     43 C33       -11.5435   -2.8308    1.5597 C.ar      1 <0>        -0.1434
     44 C34       -10.8889   -3.7893    0.8072 C.ar      1 <0>         0.1095
     45 N9         -9.6011   -4.0127    0.9684 N.ar      1 <0>        -0.4750
     46 H2         -0.9603    1.9042    0.0260 H         1 <0>         0.1264
     47 H3          1.1477    3.1723    0.0078 H         1 <0>         0.1305
     48 H4          3.3021    1.9852   -0.0192 H         1 <0>         0.1292
     49 H5          1.2182   -1.7603   -0.0191 H         1 <0>         0.1210
     50 H6         -0.9264   -0.5557    0.0083 H         1 <0>         0.1228
     51 H7          4.5215    0.4452   -1.6816 H         1 <0>         0.1595
     52 H8          7.5029   -3.6026    0.7341 H         1 <0>         0.1728
     53 H9          9.2198   -3.0510   -0.8374 H         1 <0>         0.1805
     54 H10         2.1946   -0.0677    2.1053 H         1 <0>         0.1437
     55 H11         0.4676   -0.6792    3.7467 H         1 <0>         0.1354
     56 H12         1.6579   -4.7688    3.5020 H         1 <0>         0.1359
     57 H13         3.3839   -4.1783    1.8517 H         1 <0>         0.1429
     58 H14         0.2298   -3.9953    5.3006 H         1 <0>         0.1392
     59 H15        -0.2667   -2.2890    5.4029 H         1 <0>         0.1377
     60 H16        -2.0893   -1.4861    4.0857 H         1 <0>         0.1331
     61 H17        -1.0841   -1.8712    2.6688 H         1 <0>         0.1365
     62 H18        -3.4789   -1.7059    2.0445 H         1 <0>         0.1152
     63 H19        -2.8695   -3.3623    1.8077 H         1 <0>         0.0961
     64 H20        -4.4564   -2.3492    4.2121 H         1 <0>         0.1175
     65 H21        -4.3597   -4.6863    4.9844 H         1 <0>         0.1164
     66 H22        -3.3938   -5.1364    3.5577 H         1 <0>         0.0967
     67 H23        -1.9439   -4.7804    5.5385 H         1 <0>         0.1360
     68 H24        -2.5734   -3.1240    5.7014 H         1 <0>         0.1338
     69 H25        -8.8955   -1.8096    3.3760 H         1 <0>         0.1515
     70 H26       -11.3203   -1.3470    3.1001 H         1 <0>         0.1489
     71 H27       -12.5991   -2.6529    1.4168 H         1 <0>         0.1481
     72 H28       -11.4408   -4.3596    0.0746 H         1 <0>         0.1699
     73 H29         8.7254    0.4622   -4.1541 H         1 <0>         0.4678
     74 H30        -1.1752   -4.1732    3.3452 H         1 <0>         0.4235
@<TRIPOS>BOND
     1    1    6 ar
     2    1    2 ar
     3    1   46 1
     4    2    3 ar
     5    2   47 1
     6    3    4 ar
     7    3   48 1
     8    4    5 ar
     9    4    7 1
    10    5    6 ar
    11    5   49 1
    12    6   50 1
    13    7   20 ar
    14    7    8 ar
    15    8    9 ar
    16    8   51 1
    17    9   14 1
    18    9   10 ar
    19   10   11 1
    20   10   19 ar
    21   11   12 2
    22   11   52 1
    23   12   13 1
    24   12   53 1
    25   13   17 am
    26   13   14 1
    27   14   15 2
    28   15   16 1
    29   16   17 am
    30   16   73 1
    31   17   18 2
    32   19   20 ar
    33   20   21 1
    34   21   26 ar
    35   21   22 ar
    36   22   23 ar
    37   22   54 1
    38   23   24 ar
    39   23   55 1
    40   24   25 ar
    41   24   27 1
    42   25   26 ar
    43   25   56 1
    44   26   57 1
    45   27   28 1
    46   27   58 1
    47   27   59 1
    48   28   33 1
    49   28   29 1
    50   28   74 1
    51   29   30 1
    52   29   60 1
    53   29   61 1
    54   30   31 1
    55   30   62 1
    56   30   63 1
    57   31   32 1
    58   31   34 1
    59   31   64 1
    60   32   33 1
    61   32   65 1
    62   32   66 1
    63   33   67 1
    64   33   68 1
    65   34   39 2
    66   34   35 1
    67   35   36 2
    68   36   37 1
    69   36   40 1
    70   37   38 1
    71   37   39 1
    72   40   45 ar
    73   40   41 ar
    74   41   42 ar
    75   41   69 1
    76   42   43 ar
    77   42   70 1
    78   43   44 ar
    79   43   71 1
    80   44   45 ar
    81   44   72 1
@<TRIPOS>MOLECULE
CHEMBL506077
   74    81     0     0     0
SMALL
USER_CHARGES

@<TRIPOS>ATOM
      1 C1         -0.0167    1.3792    0.0096 C.ar      1 <0>        -0.1068
      2 C2          1.1686    2.0926    0.0021 C.ar      1 <0>        -0.1112
      3 C3          2.3774    1.4273   -0.0130 C.ar      1 <0>        -0.1004
      4 C4          2.4027    0.0331   -0.0207 C.ar      1 <0>        -0.0536
      5 C5          1.2048   -0.6804   -0.0131 C.ar      1 <0>        -0.0988
      6 C6          0.0021   -0.0041    0.0020 C.ar      1 <0>        -0.1225
      7 C7          3.6976   -0.6873   -0.0375 C.ar      1 <0>        -0.0876
      8 C8          4.6832   -0.3453   -0.9637 C.ar      1 <0>        -0.0037
      9 C9          5.8807   -1.0537   -0.9352 C.ar      1 <0>        -0.0805
     10 C10         6.0621   -2.0835    0.0163 C.ar      1 <0>         0.2093
     11 C11         7.3365   -2.8113    0.0182 C.2       1 <0>        -0.1562
     12 C12         8.2922   -2.4985   -0.8622 C.2       1 <0>         0.1455
     13 N1          8.1430   -1.5000   -1.7996 N.am      1 <0>        -0.4929
     14 C13         6.9753   -0.7619   -1.8753 C.2       1 <0>         0.3085
     15 N2          7.0941    0.1108   -2.8403 N.2       1 <0>        -0.2477
     16 N3          8.3615   -0.0506   -3.4156 N.am      1 <0>        -0.5282
     17 C14         8.9833   -1.0478   -2.7556 C.2       1 <0>         0.6564
     18 O1         10.1052   -1.4664   -2.9807 O.2       1 <0>        -0.5210
     19 N4          5.0992   -2.3771    0.8804 N.ar      1 <0>        -0.4536
     20 C15         3.9492   -1.7199    0.8843 C.ar      1 <0>         0.1946
     21 C16         2.9074   -2.0823    1.8731 C.ar      1 <0>        -0.0119
     22 C17         2.0785   -1.0974    2.4096 C.ar      1 <0>        -0.0799
     23 C18         1.1099   -1.4411    3.3303 C.ar      1 <0>        -0.1000
     24 C19         0.9603   -2.7596    3.7214 C.ar      1 <0>        -0.1501
     25 C20         1.7795   -3.7411    3.1928 C.ar      1 <0>        -0.0972
     26 C21         2.7478   -3.4106    2.2670 C.ar      1 <0>        -0.0741
     27 C22        -0.0992   -3.1282    4.7278 C.3       1 <0>         0.0429
     28 N5         -1.3495   -3.4500    4.0270 N.4       1 <0>        -0.3844
     29 C23        -1.8497   -2.2499    3.3459 C.3       1 <0>        -0.0124
     30 C24        -3.1080   -2.5987    2.5480 C.3       1 <0>        -0.1383
     31 C25        -4.1806   -3.1299    3.5032 C.3       1 <0>        -0.0161
     32 C26        -3.6216   -4.3367    4.2624 C.3       1 <0>        -0.1491
     33 C27        -2.3444   -3.9235    4.9968 C.3       1 <0>        -0.0022
     34 C28        -5.3947   -3.5488    2.7149 C.2       1 <0>         0.2710
     35 N6         -6.4504   -2.8135    2.4873 N.2       1 <0>        -0.4884
     36 C29        -7.3340   -3.5033    1.7532 C.2       1 <0>         0.2884
     37 N7         -6.8378   -4.6961    1.5073 N.2       1 <0>        -0.2780
     38 H1         -4.9550   -5.4882    2.1161 H         1 <0>         0.4404
     39 N8         -5.5749   -4.7421    2.1197 N.pl3     1 <0>        -0.4753
     40 C30        -8.6537   -3.0042    1.2944 C.ar      1 <0>         0.1847
     41 C31        -9.4806   -3.8323    0.5382 C.ar      1 <0>        -0.1316
     42 C32       -10.7090   -3.3530    0.1177 C.ar      1 <0>        -0.0745
     43 C33       -11.0705   -2.0596    0.4677 C.ar      1 <0>        -0.1509
     44 C34       -10.2007   -1.2926    1.2202 C.ar      1 <0>         0.1034
     45 N9         -9.0389   -1.7753    1.6120 N.ar      1 <0>        -0.4471
     46 H2         -0.9603    1.9042    0.0260 H         1 <0>         0.1272
     47 H3          1.1477    3.1723    0.0078 H         1 <0>         0.1310
     48 H4          3.3021    1.9852   -0.0192 H         1 <0>         0.1293
     49 H5          1.2182   -1.7603   -0.0191 H         1 <0>         0.1203
     50 H6         -0.9264   -0.5557    0.0083 H         1 <0>         0.1224
     51 H7          4.5215    0.4452   -1.6816 H         1 <0>         0.1597
     52 H8          7.5029   -3.6026    0.7341 H         1 <0>         0.1728
     53 H9          9.2198   -3.0510   -0.8374 H         1 <0>         0.1807
     54 H10         2.1946   -0.0677    2.1053 H         1 <0>         0.1443
     55 H11         0.4676   -0.6792    3.7467 H         1 <0>         0.1358
     56 H12         1.6579   -4.7688    3.5020 H         1 <0>         0.1356
     57 H13         3.3839   -4.1783    1.8517 H         1 <0>         0.1431
     58 H14         0.2298   -3.9953    5.3006 H         1 <0>         0.1400
     59 H15        -0.2667   -2.2890    5.4029 H         1 <0>         0.1389
     60 H16        -2.0893   -1.4861    4.0857 H         1 <0>         0.1367
     61 H17        -1.0841   -1.8712    2.6688 H         1 <0>         0.1394
     62 H18        -3.4789   -1.7059    2.0445 H         1 <0>         0.1244
     63 H19        -2.8695   -3.3623    1.8077 H         1 <0>         0.0899
     64 H20        -4.4564   -2.3492    4.2121 H         1 <0>         0.1305
     65 H21        -4.3597   -4.6863    4.9844 H         1 <0>         0.1234
     66 H22        -3.3938   -5.1364    3.5577 H         1 <0>         0.0882
     67 H23        -1.9439   -4.7804    5.5385 H         1 <0>         0.1390
     68 H24        -2.5734   -3.1240    5.7014 H         1 <0>         0.1376
     69 H25        -9.1673   -4.8340    0.2835 H         1 <0>         0.1436
     70 H26       -11.3712   -3.9715   -0.4699 H         1 <0>         0.1455
     71 H27       -12.0221   -1.6559    0.1548 H         1 <0>         0.1449
     72 H28       -10.4789   -0.2857    1.4943 H         1 <0>         0.1668
     73 H29         8.7254    0.4622   -4.1541 H         1 <0>         0.4680
     74 H30        -1.1752   -4.1732    3.3452 H         1 <0>         0.4221
@<TRIPOS>BOND
     1    1    6 ar
     2    1    2 ar
     3    1   46 1
     4    2    3 ar
     5    2   47 1
     6    3    4 ar
     7    3   48 1
     8    4    5 ar
     9    4    7 1
    10    5    6 ar
    11    5   49 1
    12    6   50 1
    13    7   20 ar
    14    7    8 ar
    15    8    9 ar
    16    8   51 1
    17    9   14 1
    18    9   10 ar
    19   10   11 1
    20   10   19 ar
    21   11   12 2
    22   11   52 1
    23   12   13 1
    24   12   53 1
    25   13   17 am
    26   13   14 1
    27   14   15 2
    28   15   16 1
    29   16   17 am
    30   16   73 1
    31   17   18 2
    32   19   20 ar
    33   20   21 1
    34   21   26 ar
    35   21   22 ar
    36   22   23 ar
    37   22   54 1
    38   23   24 ar
    39   23   55 1
    40   24   25 ar
    41   24   27 1
    42   25   26 ar
    43   25   56 1
    44   26   57 1
    45   27   28 1
    46   27   58 1
    47   27   59 1
    48   28   33 1
    49   28   29 1
    50   28   74 1
    51   29   30 1
    52   29   60 1
    53   29   61 1
    54   30   31 1
    55   30   62 1
    56   30   63 1
    57   31   32 1
    58   31   64 1
    59   31   34 1
    60   32   33 1
    61   32   65 1
    62   32   66 1
    63   33   67 1
    64   33   68 1
    65   34   35 2
    66   34   39 1
    67   35   36 1
    68   36   40 1
    69   36   37 2
    70   37   39 1
    71   38   39 1
    72   40   45 ar
    73   40   41 ar
    74   41   42 ar
    75   41   69 1
    76   42   43 ar
    77   42   70 1
    78   43   44 ar
    79   43   71 1
    80   44   45 ar
    81   44   72 1
@<TRIPOS>MOLECULE
CHEMBL470200
   55    59     0     0     0
SMALL
USER_CHARGES

@<TRIPOS>ATOM
      1 C1         -0.2533    0.8786   -0.3587 C.ar      1 <0>        -0.1071
      2 C2          0.8534    1.7086   -0.3543 C.ar      1 <0>        -0.1155
      3 C3          2.1220    1.1712   -0.2762 C.ar      1 <0>        -0.1037
      4 C4          2.2871   -0.2112   -0.2010 C.ar      1 <0>        -0.0464
      5 C5          1.1678   -1.0427   -0.2053 C.ar      1 <0>        -0.0943
      6 C6         -0.0958   -0.4938   -0.2843 C.ar      1 <0>        -0.1154
      7 C7          3.6470   -0.7946   -0.1174 C.2       1 <0>        -0.0886
      8 C8          4.5984   -0.5112   -1.0722 C.2       1 <0>        -0.0233
      9 C9          5.8532   -1.0805   -0.9498 C.2       1 <0>        -0.2833
     10 S1          5.6965   -2.0408    0.5462 S.3       1 <0>         0.1406
     11 C10         4.0008   -1.6430    0.9359 C.2       1 <0>        -0.0369
     12 C11         3.1831   -2.0943    2.0748 C.ar      1 <0>         0.0481
     13 C12         2.4219   -1.1893    2.8225 C.ar      1 <0>        -0.1502
     14 C13         1.6688   -1.6566    3.8827 C.ar      1 <0>         0.1424
     15 N1          1.6476   -2.9325    4.2097 N.ar      1 <0>        -0.4802
     16 C14         2.3458   -3.8421    3.5427 C.ar      1 <0>         0.2903
     17 C15         3.1361   -3.4540    2.4452 C.ar      1 <0>        -0.1303
     18 C16         3.7585   -4.6728    1.9361 C.2       1 <0>        -0.2100
     19 C17         3.3287   -5.6837    2.7112 C.2       1 <0>         0.0840
     20 N2          2.4905   -5.2024    3.6801 N.pl3     1 <0>        -0.5776
     21 H1          2.0545   -5.7428    4.3574 H         1 <0>         0.4264
     22 C18         7.0182   -0.9325   -1.8281 C.2       1 <0>         0.6115
     23 O1          6.9478   -0.2295   -2.8190 O.2       1 <0>        -0.5378
     24 N3          8.1669   -1.5751   -1.5379 N.am      1 <0>        -0.7329
     25 C19         9.3307   -1.4273   -2.4154 C.3       1 <0>         0.1717
     26 C20         9.2320   -2.4301   -3.5667 C.3       1 <0>        -0.0184
     27 N4          7.9493   -2.2543   -4.2606 N.4       1 <0>        -0.6346
     28 C21        10.5893   -1.6880   -1.6286 C.ar      1 <0>        -0.1231
     29 C22        10.6248   -2.7122   -0.7009 C.ar      1 <0>        -0.1105
     30 C23        11.7792   -2.9514    0.0208 C.ar      1 <0>        -0.1097
     31 C24        12.8984   -2.1666   -0.1855 C.ar      1 <0>        -0.0950
     32 C25        12.8632   -1.1430   -1.1138 C.ar      1 <0>        -0.1095
     33 C26        11.7101   -0.9066   -1.8386 C.ar      1 <0>        -0.0944
     34 H2         -1.2444    1.3039   -0.4158 H         1 <0>         0.1266
     35 H3          0.7243    2.7793   -0.4126 H         1 <0>         0.1278
     36 H4          2.9853    1.8202   -0.2736 H         1 <0>         0.1232
     37 H5          1.2896   -2.1143   -0.1476 H         1 <0>         0.1186
     38 H6         -0.9635   -1.1369   -0.2880 H         1 <0>         0.1258
     39 H7          4.3690    0.1426   -1.9007 H         1 <0>         0.1525
     40 H8          2.4231   -0.1383    2.5742 H         1 <0>         0.1432
     41 H9          1.0820   -0.9567    4.4591 H         1 <0>         0.1706
     42 H10         4.4346   -4.7479    1.0972 H         1 <0>         0.1483
     43 H11         3.6098   -6.7197    2.5923 H         1 <0>         0.1841
     44 H12         8.2229   -2.1354   -0.7481 H         1 <0>         0.4155
     45 H13         9.3566   -0.4143   -2.8170 H         1 <0>         0.1270
     46 H14        10.0501   -2.2609   -4.2669 H         1 <0>         0.1521
     47 H15         9.2955   -3.4440   -3.1718 H         1 <0>         0.1391
     48 H16         7.1920   -2.4108   -3.6124 H         1 <0>         0.4268
     49 H17         7.8905   -1.3156   -4.6261 H         1 <0>         0.4427
     50 H18         9.7504   -3.3253   -0.5397 H         1 <0>         0.1216
     51 H19        11.8067   -3.7511    0.7461 H         1 <0>         0.1329
     52 H20        13.8001   -2.3530    0.3789 H         1 <0>         0.1332
     53 H21        13.7374   -0.5297   -1.2748 H         1 <0>         0.1342
     54 H22        11.6837   -0.1092   -2.5666 H         1 <0>         0.1305
     55 H23         7.8842   -2.9156   -5.0199 H         1 <0>         0.4372
@<TRIPOS>BOND
     1    1    6 ar
     2    1    2 ar
     3    1   34 1
     4    2    3 ar
     5    2   35 1
     6    3    4 ar
     7    3   36 1
     8    4    5 ar
     9    4    7 1
    10    5    6 ar
    11    5   37 1
    12    6   38 1
    13    7   11 2
    14    7    8 1
    15    8    9 2
    16    8   39 1
    17    9   10 1
    18    9   22 1
    19   10   11 1
    20   11   12 1
    21   12   17 ar
    22   12   13 ar
    23   13   14 ar
    24   13   40 1
    25   14   15 ar
    26   14   41 1
    27   15   16 ar
    28   16   20 1
    29   16   17 ar
    30   17   18 1
    31   18   19 2
    32   18   42 1
    33   19   20 1
    34   19   43 1
    35   20   21 1
    36   22   23 2
    37   22   24 am
    38   24   25 1
    39   24   44 1
    40   25   26 1
    41   25   28 1
    42   25   45 1
    43   26   27 1
    44   26   46 1
    45   26   47 1
    46   27   48 1
    47   27   49 1
    48   27   55 1
    49   28   33 ar
    50   28   29 ar
    51   29   30 ar
    52   29   50 1
    53   30   31 ar
    54   30   51 1
    55   31   32 ar
    56   31   52 1
    57   32   33 ar
    58   32   53 1
    59   33   54 1
@<TRIPOS>MOLECULE
CHEMBL470200
   55    59     0     0     0
SMALL
USER_CHARGES

@<TRIPOS>ATOM
      1 C1         -0.2533    0.8786   -0.3587 C.ar      1 <0>        -0.1072
      2 C2          0.8534    1.7086   -0.3543 C.ar      1 <0>        -0.1164
      3 C3          2.1220    1.1712   -0.2762 C.ar      1 <0>        -0.1047
      4 C4          2.2871   -0.2112   -0.2010 C.ar      1 <0>        -0.0457
      5 C5          1.1678   -1.0427   -0.2053 C.ar      1 <0>        -0.0935
      6 C6         -0.0958   -0.4938   -0.2843 C.ar      1 <0>        -0.1140
      7 C7          3.6470   -0.7946   -0.1174 C.2       1 <0>        -0.0886
      8 C8          4.5984   -0.5112   -1.0722 C.2       1 <0>        -0.0232
      9 C9          5.8532   -1.0805   -0.9498 C.2       1 <0>        -0.2833
     10 S1          5.6965   -2.0408    0.5462 S.3       1 <0>         0.1402
     11 C10         4.0008   -1.6430    0.9359 C.2       1 <0>        -0.0367
     12 C11         3.1831   -2.0943    2.0748 C.ar      1 <0>         0.0481
     13 C12         2.4219   -1.1893    2.8225 C.ar      1 <0>        -0.1515
     14 C13         1.6688   -1.6566    3.8827 C.ar      1 <0>         0.1412
     15 N1          1.6476   -2.9325    4.2097 N.ar      1 <0>        -0.4801
     16 C14         2.3458   -3.8421    3.5427 C.ar      1 <0>         0.2906
     17 C15         3.1361   -3.4540    2.4452 C.ar      1 <0>        -0.1301
     18 C16         3.7585   -4.6728    1.9361 C.2       1 <0>        -0.2094
     19 C17         3.3287   -5.6837    2.7112 C.2       1 <0>         0.0846
     20 N2          2.4905   -5.2024    3.6801 N.pl3     1 <0>        -0.5776
     21 H1          2.0545   -5.7428    4.3574 H         1 <0>         0.4264
     22 C18         7.0182   -0.9325   -1.8281 C.2       1 <0>         0.6114
     23 O1          6.9478   -0.2295   -2.8190 O.2       1 <0>        -0.5377
     24 N3          8.1669   -1.5751   -1.5379 N.am      1 <0>        -0.7329
     25 C19         9.3307   -1.4273   -2.4154 C.3       1 <0>         0.1717
     26 C20        10.1076   -0.1685   -2.0244 C.3       1 <0>        -0.0184
     27 N4          9.2054    0.9907   -2.0477 N.4       1 <0>        -0.6346
     28 C21        10.2234   -2.6330   -2.2730 C.ar      1 <0>        -0.1231
     29 C22        10.4311   -3.1962   -1.0278 C.ar      1 <0>        -0.1103
     30 C23        11.2500   -4.3022   -0.8972 C.ar      1 <0>        -0.1097
     31 C24        11.8609   -4.8453   -2.0120 C.ar      1 <0>        -0.0950
     32 C25        11.6525   -4.2827   -3.2574 C.ar      1 <0>        -0.1096
     33 C26        10.8302   -3.1793   -3.3885 C.ar      1 <0>        -0.0943
     34 H2         -1.2444    1.3039   -0.4158 H         1 <0>         0.1267
     35 H3          0.7243    2.7793   -0.4126 H         1 <0>         0.1272
     36 H4          2.9853    1.8202   -0.2736 H         1 <0>         0.1216
     37 H5          1.2896   -2.1143   -0.1476 H         1 <0>         0.1191
     38 H6         -0.9635   -1.1369   -0.2880 H         1 <0>         0.1263
     39 H7          4.3690    0.1426   -1.9007 H         1 <0>         0.1525
     40 H8          2.4231   -0.1383    2.5742 H         1 <0>         0.1427
     41 H9          1.0820   -0.9567    4.4591 H         1 <0>         0.1701
     42 H10         4.4346   -4.7479    1.0972 H         1 <0>         0.1495
     43 H11         3.6098   -6.7197    2.5923 H         1 <0>         0.1849
     44 H12         8.2229   -2.1354   -0.7481 H         1 <0>         0.4155
     45 H13         8.9975   -1.3420   -3.4497 H         1 <0>         0.1270
     46 H14        10.5163   -0.2907   -1.0213 H         1 <0>         0.1392
     47 H15        10.9216   -0.0096   -2.7316 H         1 <0>         0.1521
     48 H16         8.8271    1.1038   -2.9762 H         1 <0>         0.4426
     49 H17         8.4519    0.8436   -1.3930 H         1 <0>         0.4268
     50 H18         9.9538   -2.7718   -0.1568 H         1 <0>         0.1216
     51 H19        11.4127   -4.7417    0.0758 H         1 <0>         0.1329
     52 H20        12.5012   -5.7089   -1.9099 H         1 <0>         0.1331
     53 H21        12.1301   -4.7068   -4.1283 H         1 <0>         0.1342
     54 H22        10.6645   -2.7420   -4.3620 H         1 <0>         0.1305
     55 H23         9.7178    1.8208   -1.7898 H         1 <0>         0.4373
@<TRIPOS>BOND
     1    1    6 ar
     2    1    2 ar
     3    1   34 1
     4    2    3 ar
     5    2   35 1
     6    3    4 ar
     7    3   36 1
     8    4    5 ar
     9    4    7 1
    10    5    6 ar
    11    5   37 1
    12    6   38 1
    13    7   11 2
    14    7    8 1
    15    8    9 2
    16    8   39 1
    17    9   10 1
    18    9   22 1
    19   10   11 1
    20   11   12 1
    21   12   17 ar
    22   12   13 ar
    23   13   14 ar
    24   13   40 1
    25   14   15 ar
    26   14   41 1
    27   15   16 ar
    28   16   20 1
    29   16   17 ar
    30   17   18 1
    31   18   19 2
    32   18   42 1
    33   19   20 1
    34   19   43 1
    35   20   21 1
    36   22   23 2
    37   22   24 am
    38   24   25 1
    39   24   44 1
    40   25   26 1
    41   25   28 1
    42   25   45 1
    43   26   27 1
    44   26   46 1
    45   26   47 1
    46   27   48 1
    47   27   49 1
    48   27   55 1
    49   28   33 ar
    50   28   29 ar
    51   29   30 ar
    52   29   50 1
    53   30   31 ar
    54   30   51 1
    55   31   32 ar
    56   31   52 1
    57   32   33 ar
    58   32   53 1
    59   33   54 1
@<TRIPOS>MOLECULE
CHEMBL448926
   76    83     0     0     0
SMALL
USER_CHARGES

@<TRIPOS>ATOM
      1 C1         -0.0167    1.3791    0.0096 C.ar      1 <0>        -0.1065
      2 C2          1.1686    2.0924    0.0021 C.ar      1 <0>        -0.1113
      3 C3          2.3774    1.4269   -0.0135 C.ar      1 <0>        -0.1015
      4 C4          2.4026    0.0330   -0.0212 C.ar      1 <0>        -0.0539
      5 C5          1.2049   -0.6804   -0.0131 C.ar      1 <0>        -0.0983
      6 C6          0.0021   -0.0041    0.0020 C.ar      1 <0>        -0.1210
      7 C7          3.6978   -0.6877   -0.0384 C.ar      1 <0>        -0.1047
      8 C8          4.6761   -0.3464   -0.9605 C.ar      1 <0>         0.0118
      9 C9          5.8839   -1.0606   -0.9333 C.ar      1 <0>        -0.2347
     10 C10         6.9317   -0.7833   -1.8294 C.ar      1 <0>         0.2604
     11 N1          8.0365   -1.4960   -1.7432 N.ar      1 <0>        -0.5278
     12 C11         8.1720   -2.4582   -0.8351 C.ar      1 <0>         0.5817
     13 N2          7.2256   -2.7619    0.0290 N.ar      1 <0>        -0.5151
     14 C12         6.0637   -2.0952    0.0233 C.ar      1 <0>         0.3817
     15 N3          5.0920   -2.3845    0.8882 N.ar      1 <0>        -0.4568
     16 C13         3.9489   -1.7243    0.8878 C.ar      1 <0>         0.2546
     17 C14         2.9049   -2.0822    1.8757 C.ar      1 <0>        -0.0250
     18 C15         2.0780   -1.0940    2.4096 C.ar      1 <0>        -0.0749
     19 C16         1.1073   -1.4336    3.3295 C.ar      1 <0>        -0.1016
     20 C17         0.9533   -2.7511    3.7224 C.ar      1 <0>        -0.1424
     21 C18         1.7707   -3.7357    3.1967 C.ar      1 <0>        -0.0973
     22 C19         2.7410   -3.4095    2.2714 C.ar      1 <0>        -0.0668
     23 C20        -0.1089   -3.1152    4.7276 C.3       1 <0>         0.0419
     24 N4         -1.3588   -3.4347    4.0251 N.4       1 <0>        -0.3836
     25 C21        -1.8546   -2.2342    3.3413 C.3       1 <0>        -0.0115
     26 C22        -3.1124   -2.5808    2.5418 C.3       1 <0>        -0.1379
     27 C23        -4.1882   -3.1075    3.4960 C.3       1 <0>         0.0022
     28 C24        -3.6338   -4.3147    4.2580 C.3       1 <0>        -0.1403
     29 C25        -2.3567   -3.9039    4.9939 C.3       1 <0>        -0.0033
     30 C26        -5.4021   -3.5242    2.7062 C.2       1 <0>         0.2195
     31 N5         -6.6223   -3.0154    2.8441 N.2       1 <0>        -0.5190
     32 H1         -7.0775   -5.1038    0.6044 H         1 <0>         0.4544
     33 C27        -7.4477   -3.6018    2.0015 C.2       1 <0>         0.3522
     34 N6         -6.7408   -4.5160    1.2987 N.pl3     1 <0>        -0.4476
     35 N7         -5.4208   -4.4403    1.7721 N.2       1 <0>        -0.3002
     36 C28        -8.8916   -3.3125    1.8512 C.ar      1 <0>         0.1601
     37 C29        -9.4872   -2.3337    2.6459 C.ar      1 <0>        -0.1102
     38 C30       -10.8382   -2.0743    2.4933 C.ar      1 <0>        -0.0738
     39 C31       -11.5503   -2.8024    1.5507 C.ar      1 <0>        -0.1433
     40 C32       -10.8957   -3.7591    0.7960 C.ar      1 <0>         0.1096
     41 N8         -9.6080   -3.9832    0.9572 N.ar      1 <0>        -0.4749
     42 N9          9.3656   -3.1756   -0.7966 N.pl3     1 <0>        -0.4108
     43 C33        10.4547   -2.9931   -1.6120 C.2       1 <0>        -0.0282
     44 C34        11.3803   -3.8933   -1.2327 C.2       1 <0>        -0.0129
     45 N10        10.8779   -4.6092   -0.2150 N.2       1 <0>        -0.4735
     46 C35         9.6751   -4.1861    0.0600 C.2       1 <0>         0.2276
     47 H2         -0.9603    1.9042    0.0260 H         1 <0>         0.1272
     48 H3          1.1478    3.1722    0.0082 H         1 <0>         0.1311
     49 H4          3.3021    1.9848   -0.0200 H         1 <0>         0.1290
     50 H5          1.2183   -1.7603   -0.0194 H         1 <0>         0.1211
     51 H6         -0.9264   -0.5557    0.0079 H         1 <0>         0.1236
     52 H7          4.5133    0.4445   -1.6776 H         1 <0>         0.1617
     53 H8          6.8329   -0.0046   -2.5712 H         1 <0>         0.1979
     54 H9          2.1975   -0.0651    2.1039 H         1 <0>         0.1449
     55 H10         0.4666   -0.6693    3.7440 H         1 <0>         0.1373
     56 H11         1.6462   -4.7624    3.5078 H         1 <0>         0.1379
     57 H12         3.3751   -4.1797    1.8579 H         1 <0>         0.1439
     58 H13         0.2167   -3.9823    5.3023 H         1 <0>         0.1402
     59 H14        -0.2752   -2.2745    5.4011 H         1 <0>         0.1388
     60 H15        -2.0933   -1.4686    4.0795 H         1 <0>         0.1335
     61 H16        -1.0867   -1.8586    2.6649 H         1 <0>         0.1361
     62 H17        -3.4800   -1.6878    2.0363 H         1 <0>         0.1153
     63 H18        -2.8748   -3.3462    1.8030 H         1 <0>         0.0961
     64 H19        -4.4630   -2.3249    4.2032 H         1 <0>         0.1176
     65 H20        -4.3741   -4.6611    4.9792 H         1 <0>         0.1167
     66 H21        -3.4070   -5.1161    3.5549 H         1 <0>         0.0967
     67 H22        -1.9595   -4.7610    5.5376 H         1 <0>         0.1363
     68 H23        -2.5847   -3.1027    5.6969 H         1 <0>         0.1342
     69 H24        -8.9027   -1.7860    3.3703 H         1 <0>         0.1515
     70 H25       -11.3273   -1.3223    3.0947 H         1 <0>         0.1489
     71 H26       -12.6058   -2.6239    1.4079 H         1 <0>         0.1482
     72 H27       -11.4474   -4.3275    0.0619 H         1 <0>         0.1700
     73 H28        10.5503   -2.2668   -2.4055 H         1 <0>         0.1897
     74 H29        12.3590   -4.0182   -1.6720 H         1 <0>         0.1849
     75 H30         9.0320   -4.5744    0.8359 H         1 <0>         0.2188
     76 H31        -1.1854   -4.1593    3.3447 H         1 <0>         0.4237
@<TRIPOS>BOND
     1    1    6 ar
     2    1    2 ar
     3    1   47 1
     4    2    3 ar
     5    2   48 1
     6    3    4 ar
     7    3   49 1
     8    4    5 ar
     9    4    7 1
    10    5    6 ar
    11    5   50 1
    12    6   51 1
    13    7   16 ar
    14    7    8 ar
    15    8    9 ar
    16    8   52 1
    17    9   14 ar
    18    9   10 ar
    19   10   11 ar
    20   10   53 1
    21   11   12 ar
    22   12   13 ar
    23   12   42 1
    24   13   14 ar
    25   14   15 ar
    26   15   16 ar
    27   16   17 1
    28   17   22 ar
    29   17   18 ar
    30   18   19 ar
    31   18   54 1
    32   19   20 ar
    33   19   55 1
    34   20   21 ar
    35   20   23 1
    36   21   22 ar
    37   21   56 1
    38   22   57 1
    39   23   24 1
    40   23   58 1
    41   23   59 1
    42   24   29 1
    43   24   25 1
    44   24   76 1
    45   25   26 1
    46   25   60 1
    47   25   61 1
    48   26   27 1
    49   26   62 1
    50   26   63 1
    51   27   28 1
    52   27   64 1
    53   27   30 1
    54   28   29 1
    55   28   65 1
    56   28   66 1
    57   29   67 1
    58   29   68 1
    59   30   31 1
    60   30   35 2
    61   31   33 2
    62   32   34 1
    63   33   36 1
    64   33   34 1
    65   34   35 1
    66   36   41 ar
    67   36   37 ar
    68   37   38 ar
    69   37   69 1
    70   38   39 ar
    71   38   70 1
    72   39   40 ar
    73   39   71 1
    74   40   41 ar
    75   40   72 1
    76   42   46 1
    77   42   43 1
    78   43   44 2
    79   43   73 1
    80   44   45 1
    81   44   74 1
    82   45   46 2
    83   46   75 1
@<TRIPOS>MOLECULE
CHEMBL448926
   76    83     0     0     0
SMALL
USER_CHARGES

@<TRIPOS>ATOM
      1 C1         -0.0167    1.3791    0.0096 C.ar      1 <0>        -0.1058
      2 C2          1.1686    2.0924    0.0021 C.ar      1 <0>        -0.1107
      3 C3          2.3774    1.4269   -0.0135 C.ar      1 <0>        -0.1012
      4 C4          2.4026    0.0330   -0.0212 C.ar      1 <0>        -0.0542
      5 C5          1.2049   -0.6804   -0.0131 C.ar      1 <0>        -0.0993
      6 C6          0.0021   -0.0041    0.0020 C.ar      1 <0>        -0.1213
      7 C7          3.6978   -0.6877   -0.0384 C.ar      1 <0>        -0.1049
      8 C8          4.6761   -0.3464   -0.9605 C.ar      1 <0>         0.0122
      9 C9          5.8839   -1.0606   -0.9333 C.ar      1 <0>        -0.2345
     10 C10         6.9317   -0.7833   -1.8294 C.ar      1 <0>         0.2606
     11 N1          8.0365   -1.4960   -1.7432 N.ar      1 <0>        -0.5275
     12 C11         8.1720   -2.4582   -0.8351 C.ar      1 <0>         0.5822
     13 N2          7.2256   -2.7619    0.0290 N.ar      1 <0>        -0.5153
     14 C12         6.0637   -2.0952    0.0233 C.ar      1 <0>         0.3817
     15 N3          5.0920   -2.3845    0.8882 N.ar      1 <0>        -0.4567
     16 C13         3.9489   -1.7243    0.8878 C.ar      1 <0>         0.2533
     17 C14         2.9049   -2.0822    1.8757 C.ar      1 <0>        -0.0230
     18 C15         2.0780   -1.0940    2.4096 C.ar      1 <0>        -0.0744
     19 C16         1.1073   -1.4336    3.3295 C.ar      1 <0>        -0.1014
     20 C17         0.9533   -2.7511    3.7224 C.ar      1 <0>        -0.1446
     21 C18         1.7707   -3.7357    3.1967 C.ar      1 <0>        -0.0976
     22 C19         2.7410   -3.4095    2.2714 C.ar      1 <0>        -0.0673
     23 C20        -0.1089   -3.1152    4.7276 C.3       1 <0>         0.0422
     24 N4         -1.3588   -3.4347    4.0251 N.4       1 <0>        -0.3846
     25 C21        -1.8546   -2.2342    3.3413 C.3       1 <0>        -0.0126
     26 C22        -3.1124   -2.5808    2.5418 C.3       1 <0>        -0.1384
     27 C23        -4.1882   -3.1075    3.4960 C.3       1 <0>        -0.0160
     28 C24        -3.6338   -4.3147    4.2580 C.3       1 <0>        -0.1492
     29 C25        -2.3567   -3.9039    4.9939 C.3       1 <0>        -0.0022
     30 C26        -5.4021   -3.5242    2.7062 C.2       1 <0>         0.2709
     31 N5         -6.4553   -2.7864    2.4757 N.2       1 <0>        -0.4883
     32 H1         -4.9670   -5.4660    2.1117 H         1 <0>         0.4404
     33 C27        -7.3396   -3.4749    1.7412 C.2       1 <0>         0.2884
     34 N6         -6.8463   -4.6695    1.4979 N.2       1 <0>        -0.2778
     35 N7         -5.5845   -4.7180    2.1126 N.pl3     1 <0>        -0.4754
     36 C28        -8.6571   -2.9729    1.2793 C.ar      1 <0>         0.1845
     37 C29        -9.4850   -3.7998    0.5230 C.ar      1 <0>        -0.1315
     38 C30       -10.7113   -3.3178    0.0997 C.ar      1 <0>        -0.0745
     39 C31       -11.0699   -2.0228    0.4470 C.ar      1 <0>        -0.1508
     40 C32       -10.1992   -1.2571    1.1999 C.ar      1 <0>         0.1034
     41 N8         -9.0394   -1.7424    1.5944 N.ar      1 <0>        -0.4470
     42 N9          9.3656   -3.1756   -0.7966 N.pl3     1 <0>        -0.4109
     43 C33        10.4547   -2.9931   -1.6120 C.2       1 <0>        -0.0281
     44 C34        11.3803   -3.8933   -1.2327 C.2       1 <0>        -0.0127
     45 N10        10.8779   -4.6092   -0.2150 N.2       1 <0>        -0.4733
     46 C35         9.6751   -4.1861    0.0600 C.2       1 <0>         0.2274
     47 H2         -0.9603    1.9042    0.0260 H         1 <0>         0.1280
     48 H3          1.1478    3.1722    0.0082 H         1 <0>         0.1316
     49 H4          3.3021    1.9848   -0.0200 H         1 <0>         0.1292
     50 H5          1.2183   -1.7603   -0.0194 H         1 <0>         0.1204
     51 H6         -0.9264   -0.5557    0.0079 H         1 <0>         0.1232
     52 H7          4.5133    0.4445   -1.6776 H         1 <0>         0.1619
     53 H8          6.8329   -0.0046   -2.5712 H         1 <0>         0.1982
     54 H9          2.1975   -0.0651    2.1039 H         1 <0>         0.1455
     55 H10         0.4666   -0.6693    3.7440 H         1 <0>         0.1378
     56 H11         1.6462   -4.7624    3.5078 H         1 <0>         0.1375
     57 H12         3.3751   -4.1797    1.8579 H         1 <0>         0.1440
     58 H13         0.2167   -3.9823    5.3023 H         1 <0>         0.1410
     59 H14        -0.2752   -2.2745    5.4011 H         1 <0>         0.1400
     60 H15        -2.0933   -1.4686    4.0795 H         1 <0>         0.1371
     61 H16        -1.0867   -1.8586    2.6649 H         1 <0>         0.1390
     62 H17        -3.4800   -1.6878    2.0363 H         1 <0>         0.1246
     63 H18        -2.8748   -3.3462    1.8030 H         1 <0>         0.0899
     64 H19        -4.4630   -2.3249    4.2032 H         1 <0>         0.1307
     65 H20        -4.3741   -4.6611    4.9792 H         1 <0>         0.1237
     66 H21        -3.4070   -5.1161    3.5549 H         1 <0>         0.0883
     67 H22        -1.9595   -4.7610    5.5376 H         1 <0>         0.1394
     68 H23        -2.5847   -3.1027    5.6969 H         1 <0>         0.1380
     69 H24        -9.1741   -4.8028    0.2704 H         1 <0>         0.1436
     70 H25       -11.3743   -3.9354   -0.4881 H         1 <0>         0.1456
     71 H26       -12.0198   -1.6170    0.1319 H         1 <0>         0.1450
     72 H27       -10.4751   -0.2490    1.4719 H         1 <0>         0.1668
     73 H28        10.5503   -2.2668   -2.4055 H         1 <0>         0.1899
     74 H29        12.3590   -4.0182   -1.6720 H         1 <0>         0.1851
     75 H30         9.0320   -4.5744    0.8359 H         1 <0>         0.2187
     76 H31        -1.1854   -4.1593    3.3447 H         1 <0>         0.4223
@<TRIPOS>BOND
     1    1    6 ar
     2    1    2 ar
     3    1   47 1
     4    2    3 ar
     5    2   48 1
     6    3    4 ar
     7    3   49 1
     8    4    5 ar
     9    4    7 1
    10    5    6 ar
    11    5   50 1
    12    6   51 1
    13    7   16 ar
    14    7    8 ar
    15    8    9 ar
    16    8   52 1
    17    9   14 ar
    18    9   10 ar
    19   10   11 ar
    20   10   53 1
    21   11   12 ar
    22   12   13 ar
    23   12   42 1
    24   13   14 ar
    25   14   15 ar
    26   15   16 ar
    27   16   17 1
    28   17   22 ar
    29   17   18 ar
    30   18   19 ar
    31   18   54 1
    32   19   20 ar
    33   19   55 1
    34   20   21 ar
    35   20   23 1
    36   21   22 ar
    37   21   56 1
    38   22   57 1
    39   23   24 1
    40   23   58 1
    41   23   59 1
    42   24   29 1
    43   24   25 1
    44   24   76 1
    45   25   26 1
    46   25   60 1
    47   25   61 1
    48   26   27 1
    49   26   62 1
    50   26   63 1
    51   27   28 1
    52   27   64 1
    53   27   30 1
    54   28   29 1
    55   28   65 1
    56   28   66 1
    57   29   67 1
    58   29   68 1
    59   30   31 2
    60   30   35 1
    61   31   33 1
    62   32   35 1
    63   33   36 1
    64   33   34 2
    65   34   35 1
    66   36   41 ar
    67   36   37 ar
    68   37   38 ar
    69   37   69 1
    70   38   39 ar
    71   38   70 1
    72   39   40 ar
    73   39   71 1
    74   40   41 ar
    75   40   72 1
    76   42   46 1
    77   42   43 1
    78   43   44 2
    79   43   73 1
    80   44   45 1
    81   44   74 1
    82   45   46 2
    83   46   75 1
@<TRIPOS>MOLECULE
CHEMBL375485
   53    57     0     0     0
SMALL
USER_CHARGES

@<TRIPOS>ATOM
      1 C1         -0.0167    1.3781    0.0096 C.ar      1 <0>        -0.1013
      2 C2          1.1709    2.0855    0.0021 C.ar      1 <0>        -0.1078
      3 C3          2.3773    1.4107   -0.0130 C.ar      1 <0>        -0.1400
      4 C4          2.3960    0.0285   -0.0201 C.ar      1 <0>        -0.1304
      5 C5          1.2084   -0.6789   -0.0117 C.ar      1 <0>        -0.1027
      6 C6          0.0021   -0.0041    0.0020 C.ar      1 <0>        -0.1054
      7 C7          3.7112   -0.7071   -0.0376 C.3       1 <0>        -0.0970
      8 C8          4.1714   -0.9633    1.3989 C.3       1 <0>         0.0437
      9 H1          3.3868   -1.4885    1.9436 H         1 <0>         0.1555
     10 C9          5.4407   -1.8174    1.3832 C.3       1 <0>         0.0269
     11 O1          5.8049   -2.1541    2.7233 O.3       1 <0>        -0.3212
     12 C10         6.9187   -2.9157    2.8873 C.ar      1 <0>         0.0616
     13 C11         7.3342   -3.2893    4.1592 C.ar      1 <0>        -0.0675
     14 C12         8.4850   -4.0722    4.2756 C.ar      1 <0>        -0.0344
     15 C13         9.1674   -4.4458    3.1192 C.ar      1 <0>         0.0928
     16 N1          8.7376   -4.0683    1.9328 N.ar      1 <0>        -0.4392
     17 C14         7.6518   -3.3345    1.7858 C.ar      1 <0>         0.0263
     18 C15         8.9737   -4.4990    5.6097 C.ar      1 <0>         0.0997
     19 C16        10.1224   -5.2719    5.7016 C.ar      1 <0>        -0.0555
     20 C17        10.5649   -5.6626    6.9663 C.ar      1 <0>        -0.1266
     21 C18         9.8263   -5.2559    8.0971 C.ar      1 <0>         0.0851
     22 C19         8.6852   -4.4805    7.9101 C.ar      1 <0>         0.1205
     23 N2          8.3067   -4.1305    6.7010 N.ar      1 <0>        -0.4323
     24 N3         10.4676   -5.7672    9.1946 N.pl3     1 <0>        -0.4786
     25 H2         10.1850   -5.6489   10.1149 H         1 <0>         0.4532
     26 N4         11.5935   -6.4867    8.7804 N.2       1 <0>        -0.1977
     27 C20        11.6911   -6.4523    7.4704 C.2       1 <0>         0.1808
     28 C21        12.7429   -7.0920    6.6560 C.2       1 <0>         0.0283
     29 C22        14.0494   -7.2346    7.0080 C.2       1 <0>        -0.1442
     30 C23        14.6874   -7.8970    5.9403 C.2       1 <0>        -0.2132
     31 C24        13.7499   -8.1237    4.9995 C.2       1 <0>        -0.0114
     32 O2         12.5750   -7.6412    5.4376 O.3       1 <0>        -0.1665
     33 N5          4.4519    0.3186    2.0592 N.4       1 <0>        -0.6365
     34 H3         -0.9591    1.9053    0.0259 H         1 <0>         0.1329
     35 H4          1.1563    3.1654    0.0076 H         1 <0>         0.1324
     36 H5          3.3051    1.9634   -0.0196 H         1 <0>         0.1228
     37 H6          1.2231   -1.7588   -0.0176 H         1 <0>         0.1308
     38 H7         -0.9258   -0.5567    0.0082 H         1 <0>         0.1334
     39 H8          3.5884   -1.6586   -0.5549 H         1 <0>         0.1254
     40 H9          4.4573   -0.1052   -0.5563 H         1 <0>         0.1037
     41 H10         5.2575   -2.7301    0.8162 H         1 <0>         0.1142
     42 H11         6.2504   -1.2562    0.9167 H         1 <0>         0.0925
     43 H12         6.7820   -2.9821    5.0350 H         1 <0>         0.1572
     44 H13        10.0585   -5.0510    3.1968 H         1 <0>         0.1679
     45 H14         7.3313   -3.0510    0.7941 H         1 <0>         0.1585
     46 H15        10.6625   -5.5650    4.8134 H         1 <0>         0.1484
     47 H16         8.1086   -4.1609    8.7655 H         1 <0>         0.1728
     48 H17        14.5088   -6.9038    7.9278 H         1 <0>         0.1574
     49 H18        15.7307   -8.1706    5.8860 H         1 <0>         0.1592
     50 H19        13.9145   -8.6157    4.0523 H         1 <0>         0.2141
     51 H20         5.1782    0.8048    1.5550 H         1 <0>         0.4321
     52 H21         3.6148    0.8819    2.0696 H         1 <0>         0.4363
     53 H22         4.7554    0.1497    3.0065 H         1 <0>         0.4428
@<TRIPOS>BOND
     1    1    6 ar
     2    1    2 ar
     3    1   34 1
     4    2    3 ar
     5    2   35 1
     6    3    4 ar
     7    3   36 1
     8    4    5 ar
     9    4    7 1
    10    5    6 ar
    11    5   37 1
    12    6   38 1
    13    7    8 1
    14    7   39 1
    15    7   40 1
    16    8    9 1
    17    8   10 1
    18    8   33 1
    19   10   11 1
    20   10   41 1
    21   10   42 1
    22   11   12 1
    23   12   17 ar
    24   12   13 ar
    25   13   14 ar
    26   13   43 1
    27   14   15 ar
    28   14   18 1
    29   15   16 ar
    30   15   44 1
    31   16   17 ar
    32   17   45 1
    33   18   23 ar
    34   18   19 ar
    35   19   20 ar
    36   19   46 1
    37   20   27 1
    38   20   21 ar
    39   21   22 ar
    40   21   24 1
    41   22   23 ar
    42   22   47 1
    43   24   25 1
    44   24   26 1
    45   26   27 2
    46   27   28 1
    47   28   32 1
    48   28   29 2
    49   29   30 1
    50   29   48 1
    51   30   31 2
    52   30   49 1
    53   31   32 1
    54   31   50 1
    55   33   51 1
    56   33   52 1
    57   33   53 1
@<TRIPOS>MOLECULE
CHEMBL226381
   50    53     0     0     0
SMALL
USER_CHARGES

@<TRIPOS>ATOM
      1 C1         -1.7175    1.0656   -0.0407 C.3       1 <0>        -0.0851
      2 C2         -1.0096   -0.2648   -0.0284 C.2       1 <0>         0.1216
      3 C3         -0.5368   -0.9967   -1.1955 C.ar      1 <0>        -0.1473
      4 C4         -0.5572   -0.7758   -2.5769 C.ar      1 <0>        -0.0094
      5 C5          0.0092   -1.7286   -3.4089 C.ar      1 <0>         0.0760
      6 N1          0.5630   -2.8336   -2.9106 N.ar      1 <0>        -0.0780
      7 O1          1.1284   -3.7754   -3.8041 O.3       1 <0>        -0.5233
      8 C6          0.6041   -3.0814   -1.6199 C.ar      1 <0>         0.0819
      9 C7          0.0596   -2.1801   -0.7092 C.ar      1 <0>         0.1240
     10 N2         -0.0557   -2.1449    0.6545 N.pl3     1 <0>        -0.4763
     11 H1          0.2657   -2.8276    1.2640 H         1 <0>         0.4546
     12 N3         -0.7059   -0.9639    1.0289 N.2       1 <0>        -0.2149
     13 C8         -0.0016   -1.5153   -4.8770 C.ar      1 <0>        -0.0596
     14 C9          0.0032   -2.6044   -5.7520 C.ar      1 <0>        -0.0462
     15 C10        -0.0073   -2.3511   -7.1175 C.ar      1 <0>         0.0542
     16 C11        -0.0221   -1.0358   -7.5616 C.ar      1 <0>         0.0351
     17 N4         -0.0258   -0.0316   -6.7073 N.ar      1 <0>        -0.4451
     18 C12        -0.0225   -0.2258   -5.4044 C.ar      1 <0>         0.1018
     19 O2         -0.0027   -3.3780   -8.0078 O.3       1 <0>        -0.3186
     20 C13        -0.0142   -3.0342   -9.3948 C.3       1 <0>         0.0266
     21 C14        -0.0069   -4.3115  -10.2370 C.3       1 <0>         0.0433
     22 H2          0.8426   -4.9312   -9.9499 H         1 <0>         0.1559
     23 C15         0.1065   -3.9452  -11.7181 C.3       1 <0>        -0.0966
     24 C16         0.2373   -5.2028  -12.5381 C.ar      1 <0>        -0.1299
     25 C17         1.4882   -5.7273  -12.8044 C.ar      1 <0>        -0.1028
     26 C18         1.6081   -6.8810  -13.5565 C.ar      1 <0>        -0.1053
     27 C19         0.4771   -7.5103  -14.0419 C.ar      1 <0>        -0.1016
     28 C20        -0.7739   -6.9863  -13.7748 C.ar      1 <0>        -0.1078
     29 C21        -0.8940   -5.8350  -13.0191 C.ar      1 <0>        -0.1402
     30 N5         -1.2538   -5.0545  -10.0104 N.4       1 <0>        -0.6364
     31 H3         -0.9826    1.8686    0.0155 H         1 <0>         0.0952
     32 H4         -2.2922    1.1628   -0.9617 H         1 <0>         0.0898
     33 H5         -2.3896    1.1275    0.8152 H         1 <0>         0.0912
     34 H6         -1.0050    0.1178   -2.9861 H         1 <0>         0.1746
     35 H7          1.0636   -3.9915   -1.2634 H         1 <0>         0.1938
     36 H8          0.0151   -3.6169   -5.3763 H         1 <0>         0.1793
     37 H9         -0.0303   -0.8323   -8.6223 H         1 <0>         0.1591
     38 H10        -0.0312    0.6238   -4.7377 H         1 <0>         0.1686
     39 H11        -0.9111   -2.4566   -9.6185 H         1 <0>         0.0920
     40 H12         0.8687   -2.4395   -9.6290 H         1 <0>         0.1137
     41 H13        -0.7859   -3.4011  -12.0272 H         1 <0>         0.1036
     42 H14         0.9853   -3.3187  -11.8712 H         1 <0>         0.1254
     43 H15         2.3719   -5.2356  -12.4252 H         1 <0>         0.1310
     44 H16         2.5855   -7.2904  -13.7652 H         1 <0>         0.1334
     45 H17         0.5709   -8.4112  -14.6301 H         1 <0>         0.1328
     46 H18        -1.6575   -7.4778  -14.1543 H         1 <0>         0.1323
     47 H19        -1.8716   -5.4277  -12.8073 H         1 <0>         0.1227
     48 H20        -1.2490   -5.8969  -10.5658 H         1 <0>         0.4362
     49 H21        -1.3286   -5.2961   -9.0336 H         1 <0>         0.4432
     50 H22        -2.0401   -4.4809  -10.2762 H         1 <0>         0.4316
@<TRIPOS>BOND
     1    1    2 1
     2    1   31 1
     3    1   32 1
     4    1   33 1
     5    2   12 2
     6    2    3 1
     7    3    9 ar
     8    3    4 ar
     9    4    5 ar
    10    4   34 1
    11    5    6 ar
    12    5   13 1
    13    6    7 1
    14    6    8 ar
    15    8    9 ar
    16    8   35 1
    17    9   10 1
    18   10   11 1
    19   10   12 1
    20   13   18 ar
    21   13   14 ar
    22   14   15 ar
    23   14   36 1
    24   15   16 ar
    25   15   19 1
    26   16   17 ar
    27   16   37 1
    28   17   18 ar
    29   18   38 1
    30   19   20 1
    31   20   21 1
    32   20   39 1
    33   20   40 1
    34   21   22 1
    35   21   23 1
    36   21   30 1
    37   23   24 1
    38   23   41 1
    39   23   42 1
    40   24   29 ar
    41   24   25 ar
    42   25   26 ar
    43   25   43 1
    44   26   27 ar
    45   26   44 1
    46   27   28 ar
    47   27   45 1
    48   28   29 ar
    49   28   46 1
    50   29   47 1
    51   30   48 1
    52   30   49 1
    53   30   50 1
@<TRIPOS>MOLECULE
CHEMBL226381
   50    53     0     0     0
SMALL
USER_CHARGES

@<TRIPOS>ATOM
      1 C1          1.7406    1.0807    0.0512 C.3       1 <0>        -0.1089
      2 C2          1.0402   -0.2534    0.0262 C.2       1 <0>         0.1621
      3 C3          0.6008   -0.9611    1.1264 C.ar      1 <0>        -0.2137
      4 C4          0.6165   -0.7693    2.5240 C.ar      1 <0>         0.0121
      5 C5          0.0572   -1.7393    3.3270 C.ar      1 <0>         0.0457
      6 N1         -0.4956   -2.8482    2.8238 N.ar      1 <0>        -0.0828
      7 O1         -1.0466   -3.7910    3.7252 O.3       1 <0>        -0.5305
      8 C6         -0.5547   -3.1080    1.5431 C.ar      1 <0>         0.1469
      9 C7         -0.0175   -2.1960    0.6099 C.ar      1 <0>         0.0836
     10 N2          0.0866   -2.1503   -0.7040 N.2       1 <0>        -0.2494
     11 H1          0.9208   -0.6897   -1.9807 H         1 <0>         0.4566
     12 N3          0.7281   -0.9609   -1.0695 N.pl3     1 <0>        -0.3995
     13 C8          0.0690   -1.5476    4.7974 C.ar      1 <0>        -0.0532
     14 C9          0.0980   -2.6494    5.6563 C.ar      1 <0>        -0.0467
     15 C10         0.1085   -2.4159    7.0252 C.ar      1 <0>         0.0538
     16 C11         0.0900   -1.1073    7.4888 C.ar      1 <0>         0.0307
     17 N4          0.0623   -0.0908    6.6496 N.ar      1 <0>        -0.4463
     18 C12         0.0572   -0.2655    5.3440 C.ar      1 <0>         0.0959
     19 O2          0.1361   -3.4555    7.9003 O.3       1 <0>        -0.3188
     20 C13         0.1453   -3.1319    9.2922 C.3       1 <0>         0.0269
     21 C14         0.1767   -4.4212   10.1154 C.3       1 <0>         0.0432
     22 H2         -0.6571   -5.0593    9.8230 H         1 <0>         0.1559
     23 C15         0.0608   -4.0798   11.6023 C.3       1 <0>        -0.0966
     24 C16        -0.0318   -5.3524   12.4041 C.ar      1 <0>        -0.1297
     25 C17        -1.2667   -5.9145   12.6684 C.ar      1 <0>        -0.1027
     26 C18        -1.3517   -7.0818   13.4039 C.ar      1 <0>        -0.1052
     27 C19        -0.2016   -7.6874   13.8747 C.ar      1 <0>        -0.1018
     28 C20         1.0334   -7.1258   13.6097 C.ar      1 <0>        -0.1079
     29 C21         1.1186   -5.9607   12.8705 C.ar      1 <0>        -0.1402
     30 N5          1.4421   -5.1267    9.8721 N.4       1 <0>        -0.6363
     31 H3          2.8177    0.9245    0.1126 H         1 <0>         0.1018
     32 H4          1.5048    1.6320   -0.8590 H         1 <0>         0.0909
     33 H5          1.4062    1.6505    0.9181 H         1 <0>         0.1010
     34 H6          1.0573    0.1176    2.9548 H         1 <0>         0.1671
     35 H7         -1.0153   -4.0224    1.1994 H         1 <0>         0.1980
     36 H8          0.1116   -3.6562    5.2658 H         1 <0>         0.1786
     37 H9          0.0980   -0.9194    8.5523 H         1 <0>         0.1575
     38 H10         0.0393    0.5938    4.6901 H         1 <0>         0.1661
     39 H11         1.0274   -2.5335    9.5203 H         1 <0>         0.0913
     40 H12        -0.7522   -2.5648    9.5392 H         1 <0>         0.1131
     41 H13         0.9398   -3.5163   11.9153 H         1 <0>         0.1033
     42 H14        -0.8337   -3.4796   11.7686 H         1 <0>         0.1253
     43 H15        -2.1652   -5.4414   12.3006 H         1 <0>         0.1310
     44 H16        -2.3165   -7.5206   13.6110 H         1 <0>         0.1334
     45 H17        -0.2680   -8.5990   14.4500 H         1 <0>         0.1327
     46 H18         1.9319   -7.5987   13.9778 H         1 <0>         0.1322
     47 H19         2.0837   -5.5240   12.6602 H         1 <0>         0.1227
     48 H20         2.2140   -4.5359   10.1427 H         1 <0>         0.4314
     49 H21         1.4628   -5.9769   10.4150 H         1 <0>         0.4360
     50 H22         1.5185   -5.3518    8.8915 H         1 <0>         0.4434
@<TRIPOS>BOND
     1    1    2 1
     2    1   31 1
     3    1   32 1
     4    1   33 1
     5    2    3 2
     6    2   12 1
     7    3    4 ar
     8    3    9 ar
     9    4    5 ar
    10    4   34 1
    11    5    6 ar
    12    5   13 1
    13    6    7 1
    14    6    8 ar
    15    8    9 ar
    16    8   35 1
    17    9   10 2
    18   10   12 1
    19   11   12 1
    20   13   18 ar
    21   13   14 ar
    22   14   15 ar
    23   14   36 1
    24   15   16 ar
    25   15   19 1
    26   16   17 ar
    27   16   37 1
    28   17   18 ar
    29   18   38 1
    30   19   20 1
    31   20   21 1
    32   20   39 1
    33   20   40 1
    34   21   22 1
    35   21   23 1
    36   21   30 1
    37   23   24 1
    38   23   41 1
    39   23   42 1
    40   24   29 ar
    41   24   25 ar
    42   25   26 ar
    43   25   43 1
    44   26   27 ar
    45   26   44 1
    46   27   28 ar
    47   27   45 1
    48   28   29 ar
    49   28   46 1
    50   29   47 1
    51   30   48 1
    52   30   49 1
    53   30   50 1
@<TRIPOS>MOLECULE
CHEMBL383527
   53    56     0     0     0
SMALL
USER_CHARGES

@<TRIPOS>ATOM
      1 C1         -0.0211    1.3495    0.0332 C.ar      1 <0>        -0.1215
      2 C2          1.1635    2.0837    0.0188 C.ar      1 <0>        -0.0718
      3 C3          2.3736    1.4613    0.0017 C.ar      1 <0>        -0.1859
      4 C4          2.4332    0.0571   -0.0011 C.ar      1 <0>        -0.0495
      5 C5          1.2285   -0.6896    0.0140 C.ar      1 <0>        -0.0538
      6 C6         -0.0023   -0.0112    0.0310 C.ar      1 <0>        -0.0746
      7 C7          1.2880   -2.0934    0.0117 C.ar      1 <0>        -0.0741
      8 C8          2.4984   -2.7161   -0.0050 C.ar      1 <0>        -0.1208
      9 C9          3.6827   -1.9821   -0.0194 C.ar      1 <0>        -0.0688
     10 C10         3.6637   -0.6210   -0.0181 C.ar      1 <0>        -0.1376
     11 C11         4.9557    0.1546   -0.0348 C.3       1 <0>        -0.0915
     12 C12         5.3475    0.5237    1.3973 C.3       1 <0>         0.0178
     13 H1          5.3904   -0.3792    2.0065 H         1 <0>         0.1707
     14 C13         6.6987    1.1910    1.3923 C.2       1 <0>         0.5042
     15 O1          6.7786    2.3994    1.4587 O.2       1 <0>        -0.5037
     16 N1          7.8184    0.4449    1.3141 N.am      1 <0>        -0.6370
     17 C14         9.0681    1.0670    1.2107 C.ar      1 <0>         0.0697
     18 C15         9.3148    2.2643    1.8719 C.ar      1 <0>        -0.0612
     19 C16        10.5809    2.8465    1.7366 C.ar      1 <0>        -0.0827
     20 C17        11.5393    2.2044    0.9473 C.ar      1 <0>         0.1089
     21 N2         11.2591    1.0708    0.3394 N.ar      1 <0>        -0.4543
     22 C18        10.0793    0.4920    0.4502 C.ar      1 <0>         0.0959
     23 C19        10.8978    4.1162    2.4150 C.2       1 <0>        -0.1052
     24 C20        12.1155    4.6649    2.2778 C.2       1 <0>        -0.0864
     25 C21        12.4324    5.9341    2.9560 C.ar      1 <0>        -0.0226
     26 C22        11.4794    6.5824    3.7538 C.ar      1 <0>        -0.1673
     27 C23        11.8196    7.7679    4.3700 C.ar      1 <0>         0.1032
     28 N3         13.0211    8.2917    4.2163 N.ar      1 <0>        -0.4818
     29 C24        13.9479    7.7151    3.4746 C.ar      1 <0>         0.1049
     30 C25        13.6971    6.5244    2.8264 C.ar      1 <0>        -0.1573
     31 N4          4.3487    1.4445    1.9563 N.4       1 <0>        -0.6249
     32 H2         -0.9682    1.8683    0.0508 H         1 <0>         0.1360
     33 H3          1.1205    3.1629    0.0209 H         1 <0>         0.1347
     34 H4          3.2833    2.0432   -0.0101 H         1 <0>         0.1165
     35 H5         -0.9283   -0.5669    0.0426 H         1 <0>         0.1394
     36 H6          0.3783   -2.6753    0.0234 H         1 <0>         0.1391
     37 H7          2.5414   -3.7952   -0.0067 H         1 <0>         0.1367
     38 H8          4.6298   -2.5009   -0.0321 H         1 <0>         0.1340
     39 H9          5.7406   -0.4567   -0.4802 H         1 <0>         0.1282
     40 H10         4.8261    1.0638   -0.6219 H         1 <0>         0.1093
     41 H11         7.7583   -0.5231    1.3295 H         1 <0>         0.4239
     42 H12         8.5502    2.7332    2.4736 H         1 <0>         0.1512
     43 H13        12.5198    2.6430    0.8348 H         1 <0>         0.1673
     44 H14         9.8944   -0.4407   -0.0620 H         1 <0>         0.1633
     45 H15        10.1506    4.6050    3.0225 H         1 <0>         0.1300
     46 H16        12.8628    4.1760    1.6703 H         1 <0>         0.1321
     47 H17        10.4940    6.1600    3.8835 H         1 <0>         0.1350
     48 H18        11.0925    8.2752    4.9867 H         1 <0>         0.1585
     49 H19        14.9176    8.1804    3.3772 H         1 <0>         0.1613
     50 H20        14.4618    6.0561    2.2245 H         1 <0>         0.1408
     51 H21         3.4440    0.9978    1.9597 H         1 <0>         0.4436
     52 H22         4.6071    1.6880    2.9008 H         1 <0>         0.4383
     53 H23         4.3090    2.2803    1.3925 H         1 <0>         0.4394
@<TRIPOS>BOND
     1    1    6 ar
     2    1    2 ar
     3    1   32 1
     4    2    3 ar
     5    2   33 1
     6    3    4 ar
     7    3   34 1
     8    4   10 ar
     9    4    5 ar
    10    5    6 ar
    11    5    7 ar
    12    6   35 1
    13    7    8 ar
    14    7   36 1
    15    8    9 ar
    16    8   37 1
    17    9   10 ar
    18    9   38 1
    19   10   11 1
    20   11   12 1
    21   11   39 1
    22   11   40 1
    23   12   13 1
    24   12   14 1
    25   12   31 1
    26   14   15 2
    27   14   16 am
    28   16   17 1
    29   16   41 1
    30   17   22 ar
    31   17   18 ar
    32   18   19 ar
    33   18   42 1
    34   19   20 ar
    35   19   23 1
    36   20   21 ar
    37   20   43 1
    38   21   22 ar
    39   22   44 1
    40   23   24 2
    41   23   45 1
    42   24   25 1
    43   24   46 1
    44   25   30 ar
    45   25   26 ar
    46   26   27 ar
    47   26   47 1
    48   27   28 ar
    49   27   48 1
    50   28   29 ar
    51   29   30 ar
    52   29   49 1
    53   30   50 1
    54   31   51 1
    55   31   52 1
    56   31   53 1
@<TRIPOS>MOLECULE
CHEMBL383527
   52    55     0     0     0
SMALL
USER_CHARGES

@<TRIPOS>ATOM
      1 C1         -0.0211    1.3495    0.0332 C.ar      1 <0>        -0.1148
      2 C2          1.1635    2.0837    0.0188 C.ar      1 <0>        -0.1057
      3 C3          2.3736    1.4613    0.0017 C.ar      1 <0>        -0.1252
      4 C4          2.4332    0.0571   -0.0011 C.ar      1 <0>        -0.0467
      5 C5          1.2285   -0.6896    0.0140 C.ar      1 <0>        -0.0498
      6 C6         -0.0023   -0.0112    0.0310 C.ar      1 <0>        -0.1020
      7 C7          1.2880   -2.0934    0.0117 C.ar      1 <0>        -0.1021
      8 C8          2.4984   -2.7161   -0.0050 C.ar      1 <0>        -0.1147
      9 C9          3.6827   -1.9821   -0.0194 C.ar      1 <0>        -0.1053
     10 C10         3.6637   -0.6210   -0.0181 C.ar      1 <0>        -0.0803
     11 C11         4.9557    0.1546   -0.0348 C.3       1 <0>        -0.1130
     12 C12         5.3475    0.5237    1.3973 C.3       1 <0>         0.0864
     13 H1          5.3904   -0.3792    2.0065 H         1 <0>         0.1094
     14 C13         6.6987    1.1910    1.3923 C.2       1 <0>         0.5233
     15 O1          6.7786    2.3994    1.4587 O.2       1 <0>        -0.5044
     16 N1          7.8184    0.4449    1.3141 N.am      1 <0>        -0.6689
     17 C14         9.0681    1.0670    1.2107 C.ar      1 <0>         0.0970
     18 C15         9.3148    2.2643    1.8719 C.ar      1 <0>        -0.0642
     19 C16        10.5809    2.8465    1.7366 C.ar      1 <0>        -0.0922
     20 C17        11.5393    2.2044    0.9473 C.ar      1 <0>         0.0932
     21 N2         11.2591    1.0708    0.3394 N.ar      1 <0>        -0.4606
     22 C18        10.0793    0.4920    0.4502 C.ar      1 <0>         0.0811
     23 C19        10.8978    4.1162    2.4150 C.2       1 <0>        -0.0827
     24 C20        12.1155    4.6649    2.2778 C.2       1 <0>        -0.1100
     25 C21        12.4324    5.9341    2.9560 C.ar      1 <0>        -0.0119
     26 C22        11.4794    6.5824    3.7538 C.ar      1 <0>        -0.1692
     27 C23        11.8196    7.7679    4.3700 C.ar      1 <0>         0.1029
     28 N3         13.0211    8.2917    4.2163 N.ar      1 <0>        -0.4879
     29 C24        13.9479    7.7151    3.4746 C.ar      1 <0>         0.1014
     30 C25        13.6971    6.5244    2.8264 C.ar      1 <0>        -0.1627
     31 N4          4.3487    1.4445    1.9563 N.3       1 <0>        -0.8268
     32 H2         -0.9682    1.8683    0.0508 H         1 <0>         0.1256
     33 H3          1.1205    3.1629    0.0209 H         1 <0>         0.1259
     34 H4          3.2833    2.0432   -0.0101 H         1 <0>         0.1267
     35 H5         -0.9283   -0.5669    0.0426 H         1 <0>         0.1290
     36 H6          0.3783   -2.6753    0.0234 H         1 <0>         0.1289
     37 H7          2.5414   -3.7952   -0.0067 H         1 <0>         0.1261
     38 H8          4.6298   -2.5009   -0.0321 H         1 <0>         0.1248
     39 H9          5.7406   -0.4567   -0.4802 H         1 <0>         0.0867
     40 H10         4.8261    1.0638   -0.6219 H         1 <0>         0.0839
     41 H11         7.7583   -0.5231    1.3295 H         1 <0>         0.4152
     42 H12         8.5502    2.7332    2.4736 H         1 <0>         0.1539
     43 H13        12.5198    2.6430    0.8348 H         1 <0>         0.1608
     44 H14         9.8944   -0.4407   -0.0620 H         1 <0>         0.1595
     45 H15        10.1506    4.6050    3.0225 H         1 <0>         0.1291
     46 H16        12.8628    4.1760    1.6703 H         1 <0>         0.1306
     47 H17        10.4940    6.1600    3.8835 H         1 <0>         0.1372
     48 H18        11.0925    8.2752    4.9867 H         1 <0>         0.1576
     49 H19        14.9176    8.1804    3.3772 H         1 <0>         0.1580
     50 H20        14.4618    6.0561    2.2245 H         1 <0>         0.1385
     51 H21         4.2900    2.2900    1.4088 H         1 <0>         0.3517
     52 H22         3.4468    0.9982    2.0303 H         1 <0>         0.3566
@<TRIPOS>BOND
     1    1    6 ar
     2    1    2 ar
     3    1   32 1
     4    2    3 ar
     5    2   33 1
     6    3    4 ar
     7    3   34 1
     8    4   10 ar
     9    4    5 ar
    10    5    6 ar
    11    5    7 ar
    12    6   35 1
    13    7    8 ar
    14    7   36 1
    15    8    9 ar
    16    8   37 1
    17    9   10 ar
    18    9   38 1
    19   10   11 1
    20   11   12 1
    21   11   39 1
    22   11   40 1
    23   12   13 1
    24   12   14 1
    25   12   31 1
    26   14   15 2
    27   14   16 am
    28   16   17 1
    29   16   41 1
    30   17   22 ar
    31   17   18 ar
    32   18   19 ar
    33   18   42 1
    34   19   20 ar
    35   19   23 1
    36   20   21 ar
    37   20   43 1
    38   21   22 ar
    39   22   44 1
    40   23   24 2
    41   23   45 1
    42   24   25 1
    43   24   46 1
    44   25   30 ar
    45   25   26 ar
    46   26   27 ar
    47   26   47 1
    48   27   28 ar
    49   27   48 1
    50   28   29 ar
    51   29   30 ar
    52   29   49 1
    53   30   50 1
    54   31   51 1
    55   31   52 1
@<TRIPOS>MOLECULE
CHEMBL376569
   53    57     0     0     0
SMALL
USER_CHARGES

@<TRIPOS>ATOM
      1 C1         -0.0184    1.5028    0.0103 C.3       1 <0>        -0.0830
      2 C2          0.0021   -0.0041    0.0020 C.2       1 <0>         0.1048
      3 C3          0.0080   -0.8219   -1.1499 C.ar      1 <0>        -0.1396
      4 C4         -0.0022   -0.5793   -2.5294 C.ar      1 <0>        -0.0583
      5 C5          0.0088   -1.6623   -3.3937 C.ar      1 <0>         0.0934
      6 N1          0.0283   -2.9109   -2.9313 N.ar      1 <0>        -0.4342
      7 C6          0.0384   -3.1855   -1.6462 C.ar      1 <0>         0.1197
      8 C7          0.0290   -2.1610   -0.7043 C.ar      1 <0>         0.0811
      9 N2          0.0351   -2.1145    0.6648 N.pl3     1 <0>        -0.4846
     10 H1          0.0493   -2.8801    1.2603 H         1 <0>         0.4499
     11 N3          0.0229   -0.7695    1.0556 N.2       1 <0>        -0.2290
     12 C8         -0.0016   -1.4268   -4.8585 C.ar      1 <0>        -0.0333
     13 C9         -0.1016   -2.4990   -5.7484 C.ar      1 <0>        -0.0698
     14 C10        -0.1076   -2.2252   -7.1100 C.ar      1 <0>         0.0632
     15 C11        -0.0149   -0.9070   -7.5356 C.ar      1 <0>         0.0252
     16 N4          0.0787    0.0809   -6.6674 N.ar      1 <0>        -0.4396
     17 C12         0.0823   -0.1325   -5.3675 C.ar      1 <0>         0.0898
     18 O1         -0.2027   -3.2352   -8.0146 O.3       1 <0>        -0.3214
     19 C13        -0.2022   -2.8708   -9.3963 C.3       1 <0>         0.0261
     20 C14        -0.3155   -4.1312  -10.2562 C.3       1 <0>         0.0433
     21 H2          0.4811   -4.8258   -9.9896 H         1 <0>         0.1530
     22 C15        -0.1898   -3.7537  -11.7336 C.3       1 <0>        -0.0554
     23 C16        -0.1781   -5.0055  -12.5726 C.2       1 <0>        -0.2373
     24 C17         0.9071   -5.6634  -13.0102 C.2       1 <0>         0.1039
     25 N5          0.5272   -6.7547  -13.7430 N.pl3     1 <0>        -0.5847
     26 H3          1.1353   -7.3834  -14.1624 H         1 <0>         0.4264
     27 C18        -0.8468   -6.8276  -13.7963 C.ar      1 <0>         0.0987
     28 C19        -1.3489   -5.7386  -13.0602 C.ar      1 <0>        -0.1170
     29 C20        -2.7275   -5.5586  -12.9355 C.ar      1 <0>        -0.1139
     30 C21        -3.5836   -6.4446  -13.5270 C.ar      1 <0>        -0.1193
     31 C22        -3.0933   -7.5226  -14.2507 C.ar      1 <0>        -0.0933
     32 C23        -1.7363   -7.7140  -14.3942 C.ar      1 <0>        -0.1111
     33 N6         -1.6187   -4.7678  -10.0227 N.4       1 <0>        -0.6362
     34 H4          1.0042    1.8801    0.0026 H         1 <0>         0.0892
     35 H5         -0.5455    1.8639   -0.8728 H         1 <0>         0.0850
     36 H6         -0.5286    1.8543    0.9071 H         1 <0>         0.0859
     37 H7         -0.0186    0.4307   -2.9115 H         1 <0>         0.1474
     38 H8          0.0541   -4.2144   -1.3183 H         1 <0>         0.1691
     39 H9         -0.1721   -3.5143   -5.3871 H         1 <0>         0.1561
     40 H10        -0.0190   -0.6876   -8.5931 H         1 <0>         0.1587
     41 H11         0.1558    0.7045   -4.6890 H         1 <0>         0.1674
     42 H12        -1.0488   -2.2150   -9.5995 H         1 <0>         0.0917
     43 H13         0.7256   -2.3506   -9.6346 H         1 <0>         0.1136
     44 H14        -1.0360   -3.1304  -12.0226 H         1 <0>         0.0998
     45 H15         0.7376   -3.2027  -11.8901 H         1 <0>         0.1217
     46 H16         1.9288   -5.3740  -12.8132 H         1 <0>         0.1791
     47 H17        -3.1162   -4.7224  -12.3733 H         1 <0>         0.1150
     48 H18        -4.6502   -6.3050  -13.4302 H         1 <0>         0.1311
     49 H19        -3.7824   -8.2147  -14.7117 H         1 <0>         0.1351
     50 H20        -1.3646   -8.5566  -14.9583 H         1 <0>         0.1293
     51 H21        -2.3561   -4.1248  -10.2695 H         1 <0>         0.4297
     52 H22        -1.6934   -5.5990  -10.5897 H         1 <0>         0.4378
     53 H23        -1.7016   -5.0167   -9.0484 H         1 <0>         0.4398
@<TRIPOS>BOND
     1    1    2 1
     2    1   34 1
     3    1   35 1
     4    1   36 1
     5    2   11 2
     6    2    3 1
     7    3    8 ar
     8    3    4 ar
     9    4    5 ar
    10    4   37 1
    11    5    6 ar
    12    5   12 1
    13    6    7 ar
    14    7    8 ar
    15    7   38 1
    16    8    9 1
    17    9   10 1
    18    9   11 1
    19   12   17 ar
    20   12   13 ar
    21   13   14 ar
    22   13   39 1
    23   14   15 ar
    24   14   18 1
    25   15   16 ar
    26   15   40 1
    27   16   17 ar
    28   17   41 1
    29   18   19 1
    30   19   20 1
    31   19   42 1
    32   19   43 1
    33   20   21 1
    34   20   22 1
    35   20   33 1
    36   22   23 1
    37   22   44 1
    38   22   45 1
    39   23   28 1
    40   23   24 2
    41   24   25 1
    42   24   46 1
    43   25   26 1
    44   25   27 1
    45   27   32 ar
    46   27   28 ar
    47   28   29 ar
    48   29   30 ar
    49   29   47 1
    50   30   31 ar
    51   30   48 1
    52   31   32 ar
    53   31   49 1
    54   32   50 1
    55   33   51 1
    56   33   52 1
    57   33   53 1
@<TRIPOS>MOLECULE
CHEMBL212566
   67    73     0     0     0
SMALL
USER_CHARGES

@<TRIPOS>ATOM
      1 C1         -0.0165    1.3620    0.0095 C.ar      1 <0>        -0.1444
      2 C2          1.1697    2.0834    0.0021 C.ar      1 <0>        -0.0952
      3 C3          2.3856    1.4362   -0.0134 C.ar      1 <0>        -0.1324
      4 C4          2.4281    0.0456   -0.0212 C.ar      1 <0>         0.1038
      5 C5          1.2234   -0.6807   -0.0132 C.ar      1 <0>        -0.0806
      6 C6          0.0021   -0.0041    0.0020 C.ar      1 <0>        -0.0561
      7 C7          1.6036   -2.0953   -0.0245 C.2       1 <0>        -0.1635
      8 C8          2.9451   -2.1410   -0.0380 C.2       1 <0>         0.0435
      9 N1          3.4551   -0.8713   -0.0363 N.pl3     1 <0>        -0.5945
     10 H1          4.3995   -0.6501   -0.0442 H         1 <0>         0.4135
     11 C9          0.6664   -3.2754   -0.0210 C.3       1 <0>        -0.0599
     12 C10         0.2361   -3.5891   -1.4554 C.3       1 <0>         0.1676
     13 H2          1.1200   -3.7379   -2.0756 H         1 <0>         0.0979
     14 C11        -0.6144   -4.8610   -1.4661 C.3       1 <0>         0.0458
     15 O1         -1.7110   -4.7083   -0.5627 O.3       1 <0>        -0.3018
     16 C12        -2.5699   -5.7559   -0.4522 C.ar      1 <0>         0.0887
     17 C13        -3.6637   -5.6816    0.4011 C.ar      1 <0>        -0.1045
     18 C14        -4.5175   -6.7840    0.4793 C.ar      1 <0>        -0.0457
     19 C15        -4.2413   -7.9085   -0.2965 C.ar      1 <0>         0.0700
     20 N2         -3.1921   -7.9357   -1.0921 N.ar      1 <0>        -0.4424
     21 C16        -2.3684   -6.9109   -1.1949 C.ar      1 <0>         0.0145
     22 C17        -5.7001   -6.7586    1.3747 C.ar      1 <0>        -0.0682
     23 C18        -5.9735   -5.6285    2.1440 C.ar      1 <0>        -0.0669
     24 C19        -7.0705   -5.6044    2.9756 C.ar      1 <0>        -0.1340
     25 C20        -7.9174   -6.7101    3.0555 C.ar      1 <0>         0.1515
     26 C21        -7.6388   -7.8334    2.2850 C.ar      1 <0>        -0.1396
     27 C22        -6.5489   -7.8632    1.4481 C.ar      1 <0>        -0.0488
     28 C23        -8.7244   -8.8394    2.5921 C.3       1 <0>        -0.1159
     29 C24        -9.6042   -8.1340    3.6022 C.2       1 <0>         0.5282
     30 O2        -10.6033   -8.5818    4.1241 O.2       1 <0>        -0.4978
     31 N3         -9.0705   -6.9191    3.8119 N.am      1 <0>        -0.6603
     32 N4         -0.5497   -2.4718   -1.9849 N.pl3     1 <0>        -0.7367
     33 C25         0.0968   -1.3734   -2.5616 C.ar      1 <0>         0.2151
     34 C26         1.4833   -1.3411   -2.6390 C.ar      1 <0>        -0.1429
     35 C27         2.1233   -0.2597   -3.2064 C.ar      1 <0>        -0.0869
     36 C28         1.3835    0.8099   -3.7073 C.ar      1 <0>         0.0840
     37 C29        -0.0025    0.7687   -3.6259 C.ar      1 <0>        -0.0897
     38 C30        -0.6453   -0.3114   -3.0650 C.ar      1 <0>        -0.1417
     39 C31        -0.5037    2.0531   -4.2453 C.3       1 <0>        -0.1157
     40 C32         0.7577    2.7783   -4.6628 C.2       1 <0>         0.5266
     41 O3          0.8198    3.8608   -5.2065 O.2       1 <0>        -0.5149
     42 N5          1.7956    1.9976   -4.3185 N.am      1 <0>        -0.6569
     43 H3         -0.9613    1.8849    0.0259 H         1 <0>         0.1148
     44 H4          1.1388    3.1630    0.0081 H         1 <0>         0.1170
     45 H5          3.3028    2.0064   -0.0198 H         1 <0>         0.1116
     46 H6         -0.9246   -0.5587    0.0082 H         1 <0>         0.1136
     47 H7          3.5346   -3.0459   -0.0490 H         1 <0>         0.1646
     48 H8          1.1742   -4.1414    0.4036 H         1 <0>         0.0755
     49 H9         -0.2127   -3.0396    0.5787 H         1 <0>         0.0828
     50 H10        -0.9944   -5.0354   -2.4727 H         1 <0>         0.0752
     51 H11        -0.0037   -5.7090   -1.1563 H         1 <0>         0.0808
     52 H12        -3.8486   -4.7946    0.9889 H         1 <0>         0.1454
     53 H13        -4.8945   -8.7670   -0.2443 H         1 <0>         0.1604
     54 H14        -1.5224   -6.9730   -1.8634 H         1 <0>         0.1579
     55 H15        -5.3221   -4.7689    2.0877 H         1 <0>         0.1362
     56 H16        -7.2761   -4.7258    3.5690 H         1 <0>         0.1324
     57 H17        -6.3475   -8.7413    0.8524 H         1 <0>         0.1364
     58 H18        -9.2911   -9.0765    1.6917 H         1 <0>         0.1271
     59 H19        -8.2960   -9.7437    3.0242 H         1 <0>         0.1271
     60 H20        -9.4445   -6.2621    4.4197 H         1 <0>         0.4154
     61 H21        -1.5182   -2.4936   -1.9356 H         1 <0>         0.4023
     62 H22         2.0627   -2.1667   -2.2528 H         1 <0>         0.1294
     63 H23         3.2017   -0.2412   -3.2626 H         1 <0>         0.1121
     64 H24        -1.7238   -0.3318   -3.0122 H         1 <0>         0.1215
     65 H25        -1.1270    1.8403   -5.1138 H         1 <0>         0.1192
     66 H26        -1.0567    2.6402   -3.5121 H         1 <0>         0.1202
     67 H27         2.7238    2.2315   -4.4754 H         1 <0>         0.4081
@<TRIPOS>BOND
     1    1    6 ar
     2    1    2 ar
     3    1   43 1
     4    2    3 ar
     5    2   44 1
     6    3    4 ar
     7    3   45 1
     8    4    9 1
     9    4    5 ar
    10    5    6 ar
    11    5    7 1
    12    6   46 1
    13    7    8 2
    14    7   11 1
    15    8    9 1
    16    8   47 1
    17    9   10 1
    18   11   12 1
    19   11   48 1
    20   11   49 1
    21   12   13 1
    22   12   14 1
    23   12   32 1
    24   14   15 1
    25   14   50 1
    26   14   51 1
    27   15   16 1
    28   16   21 ar
    29   16   17 ar
    30   17   18 ar
    31   17   52 1
    32   18   19 ar
    33   18   22 1
    34   19   20 ar
    35   19   53 1
    36   20   21 ar
    37   21   54 1
    38   22   27 ar
    39   22   23 ar
    40   23   24 ar
    41   23   55 1
    42   24   25 ar
    43   24   56 1
    44   25   31 1
    45   25   26 ar
    46   26   27 ar
    47   26   28 1
    48   27   57 1
    49   28   29 1
    50   28   58 1
    51   28   59 1
    52   29   30 2
    53   29   31 am
    54   31   60 1
    55   32   33 1
    56   32   61 1
    57   33   38 ar
    58   33   34 ar
    59   34   35 ar
    60   34   62 1
    61   35   36 ar
    62   35   63 1
    63   36   42 1
    64   36   37 ar
    65   37   38 ar
    66   37   39 1
    67   38   64 1
    68   39   40 1
    69   39   65 1
    70   39   66 1
    71   40   41 2
    72   40   42 am
    73   42   67 1
@<TRIPOS>MOLECULE
CHEMBL574289
   74    81     0     0     0
SMALL
USER_CHARGES

@<TRIPOS>ATOM
      1 C1         -0.3305    0.5258   -0.9336 C.ar      1 <0>        -0.0975
      2 C2          0.7259    1.4179   -0.8889 C.ar      1 <0>        -0.1167
      3 C3          2.0101    0.9608   -0.6750 C.ar      1 <0>        -0.0727
      4 C4          2.2420   -0.4037   -0.5036 C.ar      1 <0>        -0.0571
      5 C5          1.1730   -1.2981   -0.5496 C.ar      1 <0>        -0.0890
      6 C6         -0.1067   -0.8289   -0.7643 C.ar      1 <0>        -0.1258
      7 C7          3.6184   -0.9009   -0.2740 C.ar      1 <0>         0.1688
      8 C8          3.8612   -1.8597    0.7404 C.ar      1 <0>         0.1491
      9 N1          5.0840   -2.3096    0.9534 N.ar      1 <0>        -0.4005
     10 C9          6.0983   -1.8578    0.2069 C.ar      1 <0>         0.0979
     11 C10         7.4070   -2.3231    0.4158 C.ar      1 <0>        -0.0631
     12 C11         8.4330   -1.8424   -0.3664 C.ar      1 <0>         0.1628
     13 C12         8.1845   -0.8954   -1.3669 C.ar      1 <0>        -0.1003
     14 C13         6.9273   -0.4285   -1.5892 C.ar      1 <0>        -0.0461
     15 C14         5.8549   -0.8978   -0.8095 C.ar      1 <0>         0.0892
     16 N2          4.6115   -0.4524   -1.0194 N.ar      1 <0>        -0.4034
     17 N3          9.7393   -2.3055   -0.1587 N.pl3     1 <0>        -0.3404
     18 C15        10.8553   -1.9392   -0.8259 C.2       1 <0>         0.2366
     19 N4         11.8523   -2.6118   -0.3135 N.2       1 <0>        -0.3199
     20 N5         11.4430   -3.3783    0.6321 N.2       1 <0>        -0.0204
     21 N6         10.1704   -3.2465    0.7930 N.2       1 <0>        -0.0710
     22 C16         2.7376   -2.3594    1.5665 C.ar      1 <0>        -0.0081
     23 C17         1.8018   -1.4671    2.0889 C.ar      1 <0>        -0.0765
     24 C18         0.7571   -1.9386    2.8572 C.ar      1 <0>        -0.0960
     25 C19         0.6370   -3.2935    3.1097 C.ar      1 <0>        -0.1482
     26 C20         1.5622   -4.1836    2.5943 C.ar      1 <0>        -0.0910
     27 C21         2.6082   -3.7247    1.8202 C.ar      1 <0>        -0.0762
     28 C22        -0.5060   -3.8018    3.9500 C.3       1 <0>         0.0429
     29 N7         -1.6513   -4.1108    3.0835 N.4       1 <0>        -0.3853
     30 C23        -2.1374   -2.8749    2.4585 C.3       1 <0>        -0.0076
     31 C24        -3.2783   -3.2019    1.4926 C.3       1 <0>        -0.1650
     32 C25        -4.4199   -3.8677    2.2664 C.3       1 <0>         0.1609
     33 C26        -3.8838   -5.1150    2.9749 C.3       1 <0>        -0.1671
     34 C27        -2.7205   -4.7171    3.8858 C.3       1 <0>         0.0010
     35 N8         -5.4838   -4.2523    1.3355 N.am      1 <0>        -0.5373
     36 C28        -6.7999   -3.7975    1.3689 C.ar      1 <0>         0.0794
     37 C29        -7.4835   -2.9227    2.1996 C.ar      1 <0>        -0.1044
     38 C30        -8.8213   -2.6643    1.9739 C.ar      1 <0>        -0.1027
     39 C31        -9.4826   -3.2753    0.9223 C.ar      1 <0>        -0.0988
     40 C32        -8.8102   -4.1485    0.0900 C.ar      1 <0>        -0.1000
     41 C33        -7.4668   -4.4135    0.3080 C.ar      1 <0>         0.0916
     42 N9         -6.5352   -5.2234   -0.3371 N.am      1 <0>        -0.6395
     43 H1         -6.7067   -5.7778   -1.1144 H         1 <0>         0.4397
     44 C34        -5.3545   -5.1011    0.2984 C.2       1 <0>         0.6858
     45 O1         -4.3274   -5.6735   -0.0149 O.2       1 <0>        -0.5579
     46 H2         -1.3345    0.8887   -1.0968 H         1 <0>         0.1281
     47 H3          0.5451    2.4743   -1.0222 H         1 <0>         0.1327
     48 H4          2.8340    1.6582   -0.6407 H         1 <0>         0.1310
     49 H5          1.3465   -2.3559   -0.4176 H         1 <0>         0.1218
     50 H6         -0.9354   -1.5206   -0.8002 H         1 <0>         0.1241
     51 H7          7.6074   -3.0535    1.1858 H         1 <0>         0.1625
     52 H8          9.0027   -0.5304   -1.9700 H         1 <0>         0.1553
     53 H9          6.7520    0.3027   -2.3645 H         1 <0>         0.1629
     54 H10        10.9131   -1.2238   -1.6330 H         1 <0>         0.2449
     55 H11         1.8947   -0.4091    1.8927 H         1 <0>         0.1391
     56 H12         0.0319   -1.2485    3.2626 H         1 <0>         0.1378
     57 H13         1.4632   -5.2402    2.7948 H         1 <0>         0.1383
     58 H14         3.3273   -4.4209    1.4146 H         1 <0>         0.1407
     59 H15        -0.1960   -4.7038    4.4778 H         1 <0>         0.1408
     60 H16        -0.7930   -3.0383    4.6731 H         1 <0>         0.1390
     61 H17        -2.4990   -2.1957    3.2305 H         1 <0>         0.1332
     62 H18        -1.3231   -2.4005    1.9108 H         1 <0>         0.1392
     63 H19        -3.6391   -2.2828    1.0309 H         1 <0>         0.1174
     64 H20        -2.9178   -3.8809    0.7199 H         1 <0>         0.1072
     65 H21        -4.8149   -3.1704    3.0051 H         1 <0>         0.1151
     66 H22        -4.6773   -5.5634    3.5727 H         1 <0>         0.1182
     67 H23        -3.5358   -5.8338    2.2330 H         1 <0>         0.1076
     68 H24        -2.3365   -5.6029    4.3920 H         1 <0>         0.1389
     69 H25        -3.0696   -3.9987    4.6274 H         1 <0>         0.1338
     70 H26        -6.9710   -2.4447    3.0214 H         1 <0>         0.1289
     71 H27        -9.3539   -1.9829    2.6208 H         1 <0>         0.1387
     72 H28       -10.5289   -3.0686    0.7524 H         1 <0>         0.1400
     73 H29        -9.3296   -4.6238   -0.7290 H         1 <0>         0.1367
     74 H30        -1.3631   -4.7579    2.3650 H         1 <0>         0.4263
@<TRIPOS>BOND
     1    1    6 ar
     2    1    2 ar
     3    1   46 1
     4    2    3 ar
     5    2   47 1
     6    3    4 ar
     7    3   48 1
     8    4    5 ar
     9    4    7 1
    10    5    6 ar
    11    5   49 1
    12    6   50 1
    13    7   16 ar
    14    7    8 ar
    15    8    9 ar
    16    8   22 1
    17    9   10 ar
    18   10   15 ar
    19   10   11 ar
    20   11   12 ar
    21   11   51 1
    22   12   13 ar
    23   12   17 1
    24   13   14 ar
    25   13   52 1
    26   14   15 ar
    27   14   53 1
    28   15   16 ar
    29   17   21 1
    30   17   18 1
    31   18   19 2
    32   18   54 1
    33   19   20 1
    34   20   21 2
    35   22   27 ar
    36   22   23 ar
    37   23   24 ar
    38   23   55 1
    39   24   25 ar
    40   24   56 1
    41   25   26 ar
    42   25   28 1
    43   26   27 ar
    44   26   57 1
    45   27   58 1
    46   28   29 1
    47   28   59 1
    48   28   60 1
    49   29   34 1
    50   29   30 1
    51   29   74 1
    52   30   31 1
    53   30   61 1
    54   30   62 1
    55   31   32 1
    56   31   63 1
    57   31   64 1
    58   32   33 1
    59   32   35 1
    60   32   65 1
    61   33   34 1
    62   33   66 1
    63   33   67 1
    64   34   68 1
    65   34   69 1
    66   35   44 am
    67   35   36 1
    68   36   41 ar
    69   36   37 ar
    70   37   38 ar
    71   37   70 1
    72   38   39 ar
    73   38   71 1
    74   39   40 ar
    75   39   72 1
    76   40   41 ar
    77   40   73 1
    78   41   42 1
    79   42   43 1
    80   42   44 am
    81   44   45 2
@<TRIPOS>MOLECULE
CHEMBL395080
   72    77     0     0     0
SMALL
USER_CHARGES

@<TRIPOS>ATOM
      1 C1         -0.0125    1.4029    0.0081 C.3       1 <0>         0.0293
      2 O1         -0.0156   -0.0261    0.0065 O.3       1 <0>        -0.3221
      3 C2          0.5993   -0.6460    1.0493 C.ar      1 <0>         0.0499
      4 C3          1.1855    0.1039    2.0513 C.ar      1 <0>        -0.1416
      5 C4          1.8156   -0.5347    3.1196 C.ar      1 <0>        -0.0825
      6 C5          1.8522   -1.9278    3.1738 C.ar      1 <0>        -0.0811
      7 C6          1.2663   -2.6732    2.1723 C.ar      1 <0>        -0.1713
      8 C7          0.6337   -2.0390    1.1109 C.ar      1 <0>         0.2085
      9 N1          0.0360   -2.7971    0.1009 N.pl3     1 <0>        -0.8690
     10 C8          2.4456    0.2663    4.1954 C.ar      1 <0>         0.0189
     11 C9          2.4038    1.6619    4.1431 C.ar      1 <0>        -0.1392
     12 C10         2.9985    2.4078    5.1183 C.ar      1 <0>        -0.0375
     13 C11         3.6530    1.7825    6.1870 C.ar      1 <0>        -0.1656
     14 C12         3.6653    0.3806    6.2637 C.ar      1 <0>         0.2157
     15 C13         3.0745   -0.3722    5.2619 C.ar      1 <0>        -0.1434
     16 N2          4.2303   -0.2504    7.3660 N.pl3     1 <0>        -0.7259
     17 C14         3.7130    0.0094    8.6416 C.ar      1 <0>         0.1516
     18 C15         3.1697   -1.0350    9.3776 C.ar      1 <0>        -0.1085
     19 C16         2.6230   -0.7945   10.6241 C.ar      1 <0>        -0.0972
     20 C17         2.6139    0.4883   11.1389 C.ar      1 <0>        -0.0543
     21 C18         3.1642    1.5301   10.4174 C.ar      1 <0>        -0.1113
     22 C19         3.7329    1.2953    9.1703 C.ar      1 <0>         0.1291
     23 N3          4.3545    2.3489    8.5019 N.am      1 <0>        -0.6512
     24 C20         4.3290    2.5946    7.2023 C.2       1 <0>         0.5739
     25 O2          4.9207    3.5839    6.8150 O.2       1 <0>        -0.5360
     26 C21         2.0015    0.7513   12.4905 C.3       1 <0>        -0.1001
     27 C22         3.0552    0.6006   13.5573 C.2       1 <0>         0.5122
     28 O3          4.1916    0.3084   13.2502 O.2       1 <0>        -0.5122
     29 N4          2.7347    0.7906   14.8525 N.am      1 <0>        -0.6716
     30 C23         3.6898    0.5593   15.8519 C.ar      1 <0>         0.0819
     31 C24         3.2996    0.0346   17.0768 C.ar      1 <0>        -0.0911
     32 C25         4.2403   -0.1937   18.0612 C.ar      1 <0>        -0.1820
     33 C26         5.5770    0.1016   17.8262 C.ar      1 <0>         0.2098
     34 C27         5.9670    0.6265   16.6009 C.ar      1 <0>        -0.1822
     35 C28         5.0267    0.8497   15.6149 C.ar      1 <0>        -0.0658
     36 N5          6.5302   -0.1293   18.8237 N.pl3     1 <0>        -0.6339
     37 C29         6.1632   -0.7983   20.0819 C.3       1 <0>         0.0871
     38 C30         7.1555   -1.9402   20.3296 C.3       1 <0>         0.0452
     39 O4          8.4889   -1.4314   20.2466 O.3       1 <0>        -0.3792
     40 C31         8.8359   -0.9057   18.9632 C.3       1 <0>         0.0451
     41 C32         7.9309    0.2842   18.6432 C.3       1 <0>         0.0858
     42 H1          1.0159    1.7641   -0.0016 H         1 <0>         0.0551
     43 H2         -0.5342    1.7684   -0.8764 H         1 <0>         0.1000
     44 H3         -0.5167    1.7664    0.9035 H         1 <0>         0.0548
     45 H4          1.1563    1.1826    2.0071 H         1 <0>         0.1332
     46 H5          2.3400   -2.4231    4.0003 H         1 <0>         0.1279
     47 H6          1.2959   -3.7519    2.2156 H         1 <0>         0.1313
     48 H7         -0.4025   -2.3547   -0.6426 H         1 <0>         0.4047
     49 H8          0.0596   -3.7659    0.1433 H         1 <0>         0.3998
     50 H9          1.8978    2.1533    3.3252 H         1 <0>         0.1302
     51 H10         2.9647    3.4860    5.0658 H         1 <0>         0.1345
     52 H11         3.1052   -1.4509    5.3054 H         1 <0>         0.1357
     53 H12         4.9736   -0.8634    7.2532 H         1 <0>         0.4128
     54 H13         3.1740   -2.0372    8.9752 H         1 <0>         0.1333
     55 H14         2.2033   -1.6089   11.1960 H         1 <0>         0.1287
     56 H15         3.1528    2.5307   10.8236 H         1 <0>         0.1296
     57 H16         4.8604    2.9696    9.0493 H         1 <0>         0.4092
     58 H17         1.6002    1.7644   12.5166 H         1 <0>         0.1078
     59 H18         1.1977    0.0374   12.6703 H         1 <0>         0.1100
     60 H19         1.8431    1.0874   15.0931 H         1 <0>         0.4090
     61 H20         2.2602   -0.1947   17.2596 H         1 <0>         0.1251
     62 H21         3.9368   -0.6016   19.0140 H         1 <0>         0.1259
     63 H22         7.0063    0.8562   16.4180 H         1 <0>         0.1250
     64 H23         5.3306    1.2537   14.6605 H         1 <0>         0.1383
     65 H24         6.2116   -0.0849   20.9047 H         1 <0>         0.0708
     66 H25         5.1532   -1.2003   20.0029 H         1 <0>         0.0921
     67 H26         6.9872   -2.3601   21.3213 H         1 <0>         0.1052
     68 H27         7.0140   -2.7153   19.5764 H         1 <0>         0.0558
     69 H28         9.8764   -0.5813   18.9718 H         1 <0>         0.1058
     70 H29         8.7005   -1.6770   18.2050 H         1 <0>         0.0558
     71 H30         8.0908    0.5987   17.6119 H         1 <0>         0.0932
     72 H31         8.1603    1.1084   19.3186 H         1 <0>         0.0710
@<TRIPOS>BOND
     1    1    2 1
     2    1   42 1
     3    1   43 1
     4    1   44 1
     5    2    3 1
     6    3    8 ar
     7    3    4 ar
     8    4    5 ar
     9    4   45 1
    10    5    6 ar
    11    5   10 1
    12    6    7 ar
    13    6   46 1
    14    7    8 ar
    15    7   47 1
    16    8    9 1
    17    9   48 1
    18    9   49 1
    19   10   15 ar
    20   10   11 ar
    21   11   12 ar
    22   11   50 1
    23   12   13 ar
    24   12   51 1
    25   13   24 1
    26   13   14 ar
    27   14   15 ar
    28   14   16 1
    29   15   52 1
    30   16   17 1
    31   16   53 1
    32   17   22 ar
    33   17   18 ar
    34   18   19 ar
    35   18   54 1
    36   19   20 ar
    37   19   55 1
    38   20   21 ar
    39   20   26 1
    40   21   22 ar
    41   21   56 1
    42   22   23 1
    43   23   24 am
    44   23   57 1
    45   24   25 2
    46   26   27 1
    47   26   58 1
    48   26   59 1
    49   27   28 2
    50   27   29 am
    51   29   30 1
    52   29   60 1
    53   30   35 ar
    54   30   31 ar
    55   31   32 ar
    56   31   61 1
    57   32   33 ar
    58   32   62 1
    59   33   34 ar
    60   33   36 1
    61   34   35 ar
    62   34   63 1
    63   35   64 1
    64   36   41 1
    65   36   37 1
    66   37   38 1
    67   37   65 1
    68   37   66 1
    69   38   39 1
    70   38   67 1
    71   38   68 1
    72   39   40 1
    73   40   41 1
    74   40   69 1
    75   40   70 1
    76   41   71 1
    77   41   72 1
@<TRIPOS>MOLECULE
CHEMBL523859
   65    68     0     0     0
SMALL
USER_CHARGES

@<TRIPOS>ATOM
      1 C1         -0.0187    1.5258    0.0104 C.3       1 <0>        -0.1659
      2 C2          0.0021   -0.0041    0.0020 C.3       1 <0>         0.0981
      3 N1          0.6878   -0.4765   -1.2033 N.pl3     1 <0>        -0.4443
      4 C3          0.1084   -0.7452   -2.4220 C.ar      1 <0>         0.0727
      5 C4         -1.1885   -0.6848   -2.9333 C.ar      1 <0>         0.0957
      6 C5         -1.4068   -1.0423   -4.2530 C.ar      1 <0>         0.0215
      7 N2         -0.4156   -1.4373   -5.0310 N.ar      1 <0>        -0.4298
      8 C6          0.8360   -1.5144   -4.6003 C.ar      1 <0>         0.2957
      9 C7          1.1491   -1.1685   -3.2692 C.ar      1 <0>         0.0653
     10 N3          2.2847   -1.1401   -2.5504 N.2       1 <0>        -0.4368
     11 C8          2.0279   -0.7287   -1.3319 C.2       1 <0>         0.3466
     12 C9          3.0324   -0.5655   -0.2583 C.2       1 <0>         0.1283
     13 C10         4.4724   -0.8253   -0.3802 C.2       1 <0>         0.3644
     14 N4          5.0335   -0.5707    0.7697 N.2       1 <0>        -0.3422
     15 O1          4.0212   -0.1472    1.6654 O.3       1 <0>         0.0513
     16 N5          2.7917   -0.1594    0.9619 N.2       1 <0>        -0.2463
     17 N6          5.1251   -1.2670   -1.5235 N.pl3     1 <0>        -0.8000
     18 C11         1.8718   -1.9500   -5.4881 C.1       1 <0>        -0.1253
     19 C12         2.7209   -2.3071   -6.2159 C.1       1 <0>        -0.1202
     20 C13         3.7856   -2.7549   -7.1284 C.3       1 <0>         0.2396
     21 C14         5.1250   -2.7540   -6.3888 C.3       1 <0>        -0.1391
     22 C15         3.4749   -4.1704   -7.6190 C.3       1 <0>        -0.1761
     23 O2          3.8585   -1.8683   -8.2468 O.3       1 <0>        -0.5434
     24 O3         -2.2219   -0.2814   -2.1476 O.3       1 <0>        -0.3000
     25 C16        -3.5183   -0.2475   -2.7478 C.3       1 <0>         0.0413
     26 C17        -4.5450    0.2275   -1.7176 C.3       1 <0>        -0.1480
     27 C18        -5.9330    0.2637   -2.3602 C.3       1 <0>         0.0402
     28 H1         -5.9015    0.8802   -3.2586 H         1 <0>         0.1500
     29 C19        -6.9380    0.8560   -1.3702 C.3       1 <0>        -0.0966
     30 C20        -8.2779    1.0057   -2.0436 C.ar      1 <0>        -0.1317
     31 C21        -8.5890    2.1754   -2.7114 C.ar      1 <0>        -0.1043
     32 C22        -9.8180    2.3127   -3.3291 C.ar      1 <0>        -0.1051
     33 C23       -10.7358    1.2801   -3.2793 C.ar      1 <0>        -0.1020
     34 C24       -10.4243    0.1101   -2.6122 C.ar      1 <0>        -0.1072
     35 C25        -9.1937   -0.0288   -1.9982 C.ar      1 <0>        -0.1415
     36 N7         -6.3433   -1.1009   -2.7170 N.4       1 <0>        -0.6417
     37 H2          1.0039    1.9031    0.0027 H         1 <0>         0.0655
     38 H3         -0.5459    1.8868   -0.8726 H         1 <0>         0.0632
     39 H4         -0.5289    1.8773    0.9072 H         1 <0>         0.0878
     40 H5          0.5293   -0.3651    0.8851 H         1 <0>         0.1105
     41 H6         -1.0205   -0.3814    0.0098 H         1 <0>         0.1032
     42 H7         -2.4085   -0.9976   -4.6543 H         1 <0>         0.1685
     43 H8          4.6220   -1.4309   -2.3365 H         1 <0>         0.4307
     44 H9          6.0842   -1.4116   -1.5092 H         1 <0>         0.4217
     45 H10         5.0694   -3.4303   -5.5357 H         1 <0>         0.0758
     46 H11         5.9134   -3.0856   -7.0645 H         1 <0>         0.0790
     47 H12         5.3464   -1.7456   -6.0392 H         1 <0>         0.0695
     48 H13         2.5207   -4.1710   -8.1459 H         1 <0>         0.0647
     49 H14         4.2633   -4.5020   -8.2948 H         1 <0>         0.0804
     50 H15         3.4193   -4.8466   -6.7660 H         1 <0>         0.0728
     51 H16         3.0424   -1.8186   -8.7631 H         1 <0>         0.3830
     52 H17        -3.5089    0.4388   -3.5945 H         1 <0>         0.0852
     53 H18        -3.7852   -1.2465   -3.0928 H         1 <0>         0.0604
     54 H19        -4.5544   -0.4589   -0.8709 H         1 <0>         0.1051
     55 H20        -4.2781    1.2264   -1.3726 H         1 <0>         0.1286
     56 H21        -7.0354    0.1928   -0.5107 H         1 <0>         0.1015
     57 H22        -6.5875    1.8330   -1.0373 H         1 <0>         0.1237
     58 H23        -7.8720    2.9821   -2.7503 H         1 <0>         0.1301
     59 H24       -10.0614    3.2268   -3.8502 H         1 <0>         0.1332
     60 H25       -11.6963    1.3877   -3.7613 H         1 <0>         0.1329
     61 H26       -11.1415   -0.6965   -2.5731 H         1 <0>         0.1323
     62 H27        -8.9489   -0.9444   -1.4802 H         1 <0>         0.1221
     63 H28        -7.2587   -1.0770   -3.1408 H         1 <0>         0.4379
     64 H29        -5.6805   -1.4915   -3.3699 H         1 <0>         0.4331
     65 H30        -6.3725   -1.6716   -1.8854 H         1 <0>         0.4346
@<TRIPOS>BOND
     1    1    2 1
     2    1   37 1
     3    1   38 1
     4    1   39 1
     5    2    3 1
     6    2   40 1
     7    2   41 1
     8    3   11 1
     9    3    4 1
    10    4    9 ar
    11    4    5 ar
    12    5    6 ar
    13    5   24 1
    14    6    7 ar
    15    6   42 1
    16    7    8 ar
    17    8    9 ar
    18    8   18 1
    19    9   10 1
    20   10   11 2
    21   11   12 1
    22   12   16 2
    23   12   13 1
    24   13   14 2
    25   13   17 1
    26   14   15 1
    27   15   16 1
    28   17   43 1
    29   17   44 1
    30   18   19 3
    31   19   20 1
    32   20   21 1
    33   20   22 1
    34   20   23 1
    35   21   45 1
    36   21   46 1
    37   21   47 1
    38   22   48 1
    39   22   49 1
    40   22   50 1
    41   23   51 1
    42   24   25 1
    43   25   26 1
    44   25   52 1
    45   25   53 1
    46   26   27 1
    47   26   54 1
    48   26   55 1
    49   27   28 1
    50   27   29 1
    51   27   36 1
    52   29   30 1
    53   29   56 1
    54   29   57 1
    55   30   35 ar
    56   30   31 ar
    57   31   32 ar
    58   31   58 1
    59   32   33 ar
    60   32   59 1
    61   33   34 ar
    62   33   60 1
    63   34   35 ar
    64   34   61 1
    65   35   62 1
    66   36   63 1
    67   36   64 1
    68   36   65 1
@<TRIPOS>MOLECULE
CHEMBL1171647
   52    55     0     0     0
SMALL
USER_CHARGES

@<TRIPOS>ATOM
      1 C1          0.7202   -3.1310   -2.6806 C.3       1 <0>        -0.1540
      2 C2         -0.3986   -3.1799   -3.7231 C.3       1 <0>        -0.0409
      3 C3         -1.7325   -3.2513   -3.0254 C.2       1 <0>        -0.1517
      4 C4         -2.4141   -4.3656   -2.7132 C.2       1 <0>         0.0741
      5 N1         -3.5858   -4.0326   -2.0841 N.pl3     1 <0>        -0.5679
      6 H1         -4.2451   -4.6679   -1.7636 H         1 <0>         0.4298
      7 C5         -3.6885   -2.6731   -1.9744 C.ar      1 <0>         0.3263
      8 C6         -2.5303   -2.1214   -2.5528 C.ar      1 <0>        -0.1938
      9 C7         -2.3831   -0.7262   -2.5647 C.ar      1 <0>         0.4782
     10 N2         -3.3461    0.0146   -2.0240 N.ar      1 <0>        -0.5412
     11 C8         -4.4159   -0.5449   -1.4882 C.ar      1 <0>         0.3335
     12 N3         -4.5996   -1.8473   -1.4623 N.ar      1 <0>        -0.5214
     13 N4         -1.2642   -0.1360   -3.1244 N.pl3     1 <0>        -0.6552
     14 C9         -0.0473    0.2632   -2.3942 C.3       1 <0>         0.1354
     15 C10         1.0732    0.2684   -3.4639 C.3       1 <0>        -0.1473
     16 C11         0.3160    0.8091   -4.7055 C.3       1 <0>         0.0299
     17 C12        -1.0891    0.1912   -4.5470 C.3       1 <0>         0.1338
     18 C13         0.2477    2.3372   -4.6748 C.3       1 <0>         0.1157
     19 N5          1.5959    2.8895   -4.8274 N.am      1 <0>        -0.7500
     20 C14         1.7810    4.2245   -4.8298 C.2       1 <0>         0.5718
     21 O1          0.8290    4.9705   -4.7052 O.2       1 <0>        -0.4908
     22 C15         3.1391    4.7809   -4.9836 C.ar      1 <0>        -0.2021
     23 C16         4.2347    3.9264   -5.1327 C.ar      1 <0>        -0.0306
     24 C17         5.5002    4.4509   -5.2758 C.ar      1 <0>        -0.1714
     25 C18         5.6904    5.8254   -5.2723 C.ar      1 <0>         0.1752
     26 C19         4.6102    6.6796   -5.1251 C.ar      1 <0>        -0.1995
     27 C20         3.3346    6.1662   -4.9864 C.ar      1 <0>         0.2025
     28 F1          2.2802    6.9995   -4.8484 F         1 <0>        -0.0998
     29 F2          6.9346    6.3326   -5.4128 F         1 <0>        -0.1149
     30 N6          0.9496    0.3405   -5.9453 N.4       1 <0>        -0.6284
     31 H2          1.6763   -2.9762   -3.1807 H         1 <0>         0.0545
     32 H3          0.5355   -2.3101   -1.9877 H         1 <0>         0.0567
     33 H4          0.7459   -4.0718   -2.1308 H         1 <0>         0.0621
     34 H5         -0.3592   -2.2826   -4.3407 H         1 <0>         0.0562
     35 H6         -0.2703   -4.0603   -4.3528 H         1 <0>         0.0744
     36 H7         -2.0880   -5.3730   -2.9258 H         1 <0>         0.1855
     37 H8         -5.1744    0.0935   -1.0598 H         1 <0>         0.2071
     38 H9         -0.1699    1.2590   -1.9684 H         1 <0>         0.0754
     39 H10         0.1794   -0.4600   -1.6108 H         1 <0>         0.0899
     40 H11         1.8834    0.9390   -3.1777 H         1 <0>         0.1146
     41 H12         1.4473   -0.7397   -3.6427 H         1 <0>         0.1082
     42 H13        -1.1678   -0.7146   -5.1482 H         1 <0>         0.0814
     43 H14        -1.8459    0.9116   -4.8575 H         1 <0>         0.0933
     44 H15        -0.3837    2.6892   -5.4907 H         1 <0>         0.1049
     45 H16        -0.1729    2.6630   -3.7234 H         1 <0>         0.1238
     46 H17         2.3555    2.2944   -4.9268 H         1 <0>         0.3926
     47 H18         4.0894    2.8562   -5.1353 H         1 <0>         0.1393
     48 H19         6.3470    3.7905   -5.3907 H         1 <0>         0.1551
     49 H20         4.7644    7.7486   -5.1228 H         1 <0>         0.1637
     50 H21         0.9579   -0.6683   -5.9583 H         1 <0>         0.4405
     51 H22         0.4291    0.6828   -6.7391 H         1 <0>         0.4422
     52 H23         1.8968    0.6854   -5.9901 H         1 <0>         0.4335
@<TRIPOS>BOND
     1    1    2 1
     2    1   31 1
     3    1   32 1
     4    1   33 1
     5    2    3 1
     6    2   34 1
     7    2   35 1
     8    3    8 1
     9    3    4 2
    10    4    5 1
    11    4   36 1
    12    5    6 1
    13    5    7 1
    14    7   12 ar
    15    7    8 ar
    16    8    9 ar
    17    9   10 ar
    18    9   13 1
    19   10   11 ar
    20   11   12 ar
    21   11   37 1
    22   13   17 1
    23   13   14 1
    24   14   15 1
    25   14   38 1
    26   14   39 1
    27   15   16 1
    28   15   40 1
    29   15   41 1
    30   16   17 1
    31   16   18 1
    32   16   30 1
    33   17   42 1
    34   17   43 1
    35   18   19 1
    36   18   44 1
    37   18   45 1
    38   19   20 am
    39   19   46 1
    40   20   21 2
    41   20   22 1
    42   22   27 ar
    43   22   23 ar
    44   23   24 ar
    45   23   47 1
    46   24   25 ar
    47   24   48 1
    48   25   26 ar
    49   25   29 1
    50   26   27 ar
    51   26   49 1
    52   27   28 1
    53   30   50 1
    54   30   51 1
    55   30   52 1
@<TRIPOS>MOLECULE
CHEMBL1079625
   48    51     0     0     0
SMALL
USER_CHARGES

@<TRIPOS>ATOM
      1 C1         -0.0167    1.3781    0.0096 C.ar      1 <0>        -0.1414
      2 C2          1.1709    2.0855    0.0021 C.ar      1 <0>        -0.0582
      3 C3          2.3773    1.4107   -0.0130 C.ar      1 <0>        -0.1630
      4 C4          2.3960    0.0285   -0.0201 C.ar      1 <0>        -0.0559
      5 C5          1.2085   -0.6789   -0.0117 C.ar      1 <0>        -0.1023
      6 C6          0.0021   -0.0041    0.0020 C.ar      1 <0>        -0.0985
      7 C7         -1.2926   -0.7753    0.0107 C.3       1 <0>        -0.0995
      8 C8         -1.7450   -1.0285   -1.4288 C.3       1 <0>         0.0245
      9 H1         -0.9463   -1.5264   -1.9784 H         1 <0>         0.1549
     10 C9         -2.9907   -1.9168   -1.4231 C.3       1 <0>         0.1137
     11 N1         -3.4936   -2.0615   -2.7914 N.pl3     1 <0>        -0.7062
     12 C10        -4.6208   -2.8261   -3.0372 C.2       1 <0>         0.2787
     13 N2         -5.3658   -3.4846   -2.1727 N.2       1 <0>        -0.5615
     14 C11        -6.4178   -4.1742   -2.5631 C.2       1 <0>         0.0896
     15 C12        -6.6934   -4.1701   -3.9048 C.2       1 <0>        -0.1724
     16 S1         -5.3732   -3.1321   -4.5111 S.3       1 <0>         0.1314
     17 C13        -7.7844   -4.8362   -4.6449 C.ar      1 <0>         0.0516
     18 C14        -8.7306   -5.6061   -3.9517 C.ar      1 <0>        -0.1419
     19 C15        -9.7408   -6.2259   -4.6196 C.ar      1 <0>        -0.0250
     20 C16        -9.8438   -6.0983   -6.0127 C.ar      1 <0>        -0.1740
     21 C17       -10.7541   -6.6056   -6.9707 C.2       1 <0>         0.0777
     22 N3        -10.3980   -6.1836   -8.1494 N.2       1 <0>        -0.2432
     23 N4         -9.2518   -5.3868   -8.0414 N.pl3     1 <0>        -0.5045
     24 H2         -8.7886   -4.9526   -8.7748 H         1 <0>         0.4433
     25 C18        -8.8982   -5.3269   -6.7167 C.ar      1 <0>         0.1328
     26 C19        -7.8728   -4.6932   -6.0250 C.ar      1 <0>        -0.1341
     27 N5         -2.0599    0.2523   -2.0756 N.4       1 <0>        -0.6402
     28 C20         3.6720    2.1819   -0.0222 C.3       1 <0>         0.5037
     29 F1          4.0857    2.4144    1.2938 F         1 <0>        -0.1688
     30 F2          4.6506    1.4423   -0.6949 F         1 <0>        -0.1715
     31 F3          3.4816    3.4050   -0.6742 F         1 <0>        -0.1729
     32 H3         -0.9591    1.9053    0.0259 H         1 <0>         0.1371
     33 H4          1.1563    3.1654    0.0076 H         1 <0>         0.1471
     34 H5          3.3385   -0.4987   -0.0326 H         1 <0>         0.1478
     35 H6          1.2231   -1.7588   -0.0179 H         1 <0>         0.1451
     36 H7         -1.1443   -1.7285    0.5180 H         1 <0>         0.1327
     37 H8         -2.0551   -0.1993    0.5352 H         1 <0>         0.1104
     38 H9         -2.7351   -2.8985   -1.0242 H         1 <0>         0.1171
     39 H10        -3.7596   -1.4603   -0.7997 H         1 <0>         0.1000
     40 H11        -3.0366   -1.6214   -3.5252 H         1 <0>         0.4101
     41 H12        -7.0326   -4.7165   -1.8601 H         1 <0>         0.1829
     42 H13        -8.6562   -5.7078   -2.8790 H         1 <0>         0.1329
     43 H14       -10.4638   -6.8169   -4.0770 H         1 <0>         0.1389
     44 H15       -11.6034   -7.2380   -6.7588 H         1 <0>         0.1986
     45 H16        -7.1466   -4.0965   -6.5569 H         1 <0>         0.1245
     46 H17        -2.7994    0.7132   -1.5668 H         1 <0>         0.4378
     47 H18        -1.2384    0.8381   -2.0794 H         1 <0>         0.4379
     48 H19        -2.3583    0.0853   -3.0249 H         1 <0>         0.4321
@<TRIPOS>BOND
     1    1    6 ar
     2    1    2 ar
     3    1   32 1
     4    2    3 ar
     5    2   33 1
     6    3    4 ar
     7    3   28 1
     8    4    5 ar
     9    4   34 1
    10    5    6 ar
    11    5   35 1
    12    6    7 1
    13    7    8 1
    14    7   36 1
    15    7   37 1
    16    8    9 1
    17    8   10 1
    18    8   27 1
    19   10   11 1
    20   10   38 1
    21   10   39 1
    22   11   12 1
    23   11   40 1
    24   12   16 1
    25   12   13 2
    26   13   14 1
    27   14   15 2
    28   14   41 1
    29   15   16 1
    30   15   17 1
    31   17   26 ar
    32   17   18 ar
    33   18   19 ar
    34   18   42 1
    35   19   20 ar
    36   19   43 1
    37   20   25 ar
    38   20   21 1
    39   21   22 2
    40   21   44 1
    41   22   23 1
    42   23   24 1
    43   23   25 1
    44   25   26 ar
    45   26   45 1
    46   27   46 1
    47   27   47 1
    48   27   48 1
    49   28   29 1
    50   28   30 1
    51   28   31 1
@<TRIPOS>MOLECULE
CHEMBL208199
   47    50     0     0     0
SMALL
USER_CHARGES

@<TRIPOS>ATOM
      1 C1         -0.0165    1.3620    0.0095 C.ar      1 <0>        -0.1188
      2 C2          1.1697    2.0834    0.0021 C.ar      1 <0>        -0.0930
      3 C3          2.3856    1.4362   -0.0134 C.ar      1 <0>        -0.1108
      4 C4          2.4281    0.0456   -0.0212 C.ar      1 <0>         0.0986
      5 C5          1.2234   -0.6807   -0.0132 C.ar      1 <0>        -0.1172
      6 C6          0.0021   -0.0041    0.0020 C.ar      1 <0>        -0.1144
      7 C7          1.6036   -2.0953   -0.0245 C.2       1 <0>        -0.2383
      8 C8          2.9451   -2.1410   -0.0380 C.2       1 <0>         0.1043
      9 N1          3.4551   -0.8713   -0.0363 N.pl3     1 <0>        -0.5842
     10 H1          4.3995   -0.6501   -0.0442 H         1 <0>         0.4267
     11 C9          0.6664   -3.2754   -0.0210 C.3       1 <0>        -0.0553
     12 C10         0.2361   -3.5891   -1.4554 C.3       1 <0>         0.0435
     13 H2          1.1200   -3.7379   -2.0756 H         1 <0>         0.1532
     14 C11        -0.6144   -4.8610   -1.4661 C.3       1 <0>         0.0257
     15 O1         -0.9189   -5.2190   -2.8156 O.3       1 <0>        -0.3217
     16 C12        -1.6731   -6.3340   -3.0030 C.ar      1 <0>         0.0675
     17 C13        -2.0064   -6.7503   -4.2858 C.ar      1 <0>        -0.0863
     18 C14        -2.7834   -7.9022   -4.4264 C.ar      1 <0>        -0.0541
     19 C15        -3.1917   -8.5852   -3.2822 C.ar      1 <0>         0.0968
     20 N2         -2.8524   -8.1545   -2.0847 N.ar      1 <0>        -0.4391
     21 C16        -2.1151   -7.0742   -1.9153 C.ar      1 <0>         0.0296
     22 C17        -3.1687   -8.3912   -5.7732 C.ar      1 <0>        -0.0117
     23 C18        -2.7593   -7.7159   -6.9264 C.ar      1 <0>        -0.1617
     24 C19        -3.1396   -8.2051   -8.1592 C.ar      1 <0>         0.1077
     25 N3         -3.8788   -9.2933   -8.2572 N.ar      1 <0>        -0.4766
     26 C20        -4.2860   -9.9600   -7.1941 C.ar      1 <0>         0.1106
     27 C21        -3.9460   -9.5430   -5.9235 C.ar      1 <0>        -0.1576
     28 N4         -0.5518   -2.4687   -1.9863 N.4       1 <0>        -0.6363
     29 H3         -0.9613    1.8849    0.0259 H         1 <0>         0.1313
     30 H4          1.1388    3.1630    0.0081 H         1 <0>         0.1355
     31 H5          3.3028    2.0064   -0.0198 H         1 <0>         0.1296
     32 H6         -0.9246   -0.5587    0.0082 H         1 <0>         0.1147
     33 H7          3.5346   -3.0459   -0.0490 H         1 <0>         0.1792
     34 H8          1.1742   -4.1414    0.4036 H         1 <0>         0.1218
     35 H9         -0.2127   -3.0396    0.5787 H         1 <0>         0.1000
     36 H10        -0.0618   -5.6715   -0.9910 H         1 <0>         0.1145
     37 H11        -1.5405   -4.6834   -0.9195 H         1 <0>         0.0927
     38 H12        -1.6737   -6.1973   -5.1518 H         1 <0>         0.1500
     39 H13        -3.7931   -9.4770   -3.3785 H         1 <0>         0.1695
     40 H14        -1.8553   -6.7585   -0.9157 H         1 <0>         0.1607
     41 H15        -2.1546   -6.8240   -6.8535 H         1 <0>         0.1364
     42 H16        -2.8281   -7.6901   -9.0559 H         1 <0>         0.1621
     43 H17        -4.8904  -10.8462   -7.3201 H         1 <0>         0.1649
     44 H18        -4.2789  -10.0962   -5.0578 H         1 <0>         0.1424
     45 H19         0.0090   -1.6300   -1.9793 H         1 <0>         0.4385
     46 H20        -0.8356   -2.6756   -2.9322 H         1 <0>         0.4391
     47 H21        -1.3700   -2.3311   -1.4122 H         1 <0>         0.4300
@<TRIPOS>BOND
     1    1    6 ar
     2    1    2 ar
     3    1   29 1
     4    2    3 ar
     5    2   30 1
     6    3    4 ar
     7    3   31 1
     8    4    9 1
     9    4    5 ar
    10    5    6 ar
    11    5    7 1
    12    6   32 1
    13    7    8 2
    14    7   11 1
    15    8    9 1
    16    8   33 1
    17    9   10 1
    18   11   12 1
    19   11   34 1
    20   11   35 1
    21   12   13 1
    22   12   14 1
    23   12   28 1
    24   14   15 1
    25   14   36 1
    26   14   37 1
    27   15   16 1
    28   16   21 ar
    29   16   17 ar
    30   17   18 ar
    31   17   38 1
    32   18   19 ar
    33   18   22 1
    34   19   20 ar
    35   19   39 1
    36   20   21 ar
    37   21   40 1
    38   22   27 ar
    39   22   23 ar
    40   23   24 ar
    41   23   41 1
    42   24   25 ar
    43   24   42 1
    44   25   26 ar
    45   26   27 ar
    46   26   43 1
    47   27   44 1
    48   28   45 1
    49   28   46 1
    50   28   47 1
@<TRIPOS>MOLECULE
CHEMBL258844
   72    79     0     0     0
SMALL
USER_CHARGES

@<TRIPOS>ATOM
      1 C1         -0.3283    0.5400   -0.9224 C.ar      1 <0>        -0.1010
      2 C2          0.7317    1.4280   -0.8815 C.ar      1 <0>        -0.1174
      3 C3          2.0149    0.9658   -0.6721 C.ar      1 <0>        -0.0749
      4 C4          2.2420   -0.3996   -0.5014 C.ar      1 <0>        -0.0496
      5 C5          1.1693   -1.2899   -0.5436 C.ar      1 <0>        -0.0903
      6 C6         -0.1093   -0.8156   -0.7538 C.ar      1 <0>        -0.1261
      7 C7          3.6171   -0.9023   -0.2767 C.ar      1 <0>         0.1698
      8 C8          3.8656   -1.8955    0.7646 C.ar      1 <0>         0.1362
      9 N1          5.0860   -2.3512    0.9752 N.ar      1 <0>        -0.3960
     10 C9          6.1023   -1.9002    0.2291 C.ar      1 <0>         0.0612
     11 C10         7.4056   -2.3681    0.4325 C.ar      1 <0>        -0.0170
     12 C11         8.4404   -1.8845   -0.3549 C.ar      1 <0>         0.0746
     13 C12         8.1934   -0.9229   -1.3621 C.ar      1 <0>         0.0861
     14 C13         6.9246   -0.4399   -1.5912 C.ar      1 <0>        -0.0760
     15 C14         5.8525   -0.9040   -0.8159 C.ar      1 <0>         0.0929
     16 N2          4.6096   -0.4538   -1.0225 N.ar      1 <0>        -0.4108
     17 N3          9.4225   -0.6645   -1.9466 N.pl3     1 <0>        -0.6146
     18 H1          9.5945   -0.0462   -2.6740 H         1 <0>         0.4330
     19 C15        10.3442   -1.4384   -1.3113 C.2       1 <0>         0.3107
     20 N4          9.7751   -2.1498   -0.3840 N.2       1 <0>        -0.4999
     21 C16         2.7409   -2.3942    1.5898 C.ar      1 <0>         0.0018
     22 C17         1.8051   -1.5010    2.1109 C.ar      1 <0>        -0.0796
     23 C18         0.7594   -1.9715    2.8785 C.ar      1 <0>        -0.0959
     24 C19         0.6382   -3.3262    3.1313 C.ar      1 <0>        -0.1530
     25 C20         1.5633   -4.2171    2.6171 C.ar      1 <0>        -0.0911
     26 C21         2.6103   -3.7592    1.8438 C.ar      1 <0>        -0.0791
     27 C22        -0.5059   -3.8335    3.9708 C.3       1 <0>         0.0439
     28 N5         -1.6506   -4.1420    3.1033 N.4       1 <0>        -0.3853
     29 C23        -2.1353   -2.9060    2.4773 C.3       1 <0>        -0.0074
     30 C24        -3.2755   -3.2327    1.5105 C.3       1 <0>        -0.1649
     31 C25        -4.4183   -3.8975    2.2834 C.3       1 <0>         0.1608
     32 C26        -3.8837   -5.1449    2.9929 C.3       1 <0>        -0.1669
     33 C27        -2.7209   -4.7474    3.9048 C.3       1 <0>         0.0012
     34 N6         -5.4815   -4.2817    1.3517 N.am      1 <0>        -0.5372
     35 C28        -6.7974   -3.8260    1.3837 C.ar      1 <0>         0.0798
     36 C29        -7.4812   -2.9504    2.2134 C.ar      1 <0>        -0.1043
     37 C30        -8.8186   -2.6912    1.9864 C.ar      1 <0>        -0.1029
     38 C31        -9.4793   -3.3022    0.9344 C.ar      1 <0>        -0.0991
     39 C32        -8.8067   -4.1761    0.1030 C.ar      1 <0>        -0.1002
     40 C33        -7.4636   -4.4419    0.3224 C.ar      1 <0>         0.0916
     41 N7         -6.5320   -5.2527   -0.3216 N.am      1 <0>        -0.6396
     42 H2         -6.7032   -5.8073   -1.0987 H         1 <0>         0.4396
     43 C34        -5.3518   -5.1309    0.3150 C.2       1 <0>         0.6857
     44 O1         -4.3248   -5.7041    0.0029 O.2       1 <0>        -0.5575
     45 H3         -1.3314    0.9069   -1.0821 H         1 <0>         0.1266
     46 H4          0.5546    2.4851   -1.0142 H         1 <0>         0.1310
     47 H5          2.8417    1.6600   -0.6408 H         1 <0>         0.1300
     48 H6          1.3390   -2.3484   -0.4124 H         1 <0>         0.1216
     49 H7         -0.9409   -1.5040   -0.7867 H         1 <0>         0.1228
     50 H8          7.6048   -3.1021    1.1993 H         1 <0>         0.1532
     51 H9          6.7559    0.2945   -2.3650 H         1 <0>         0.1464
     52 H10        11.3985   -1.4589   -1.5445 H         1 <0>         0.2289
     53 H11         1.8989   -0.4432    1.9145 H         1 <0>         0.1383
     54 H12         0.0343   -1.2808    3.2829 H         1 <0>         0.1361
     55 H13         1.4634   -5.2736    2.8180 H         1 <0>         0.1366
     56 H14         3.3294   -4.4561    1.4392 H         1 <0>         0.1403
     57 H15        -0.1970   -4.7354    4.4991 H         1 <0>         0.1398
     58 H16        -0.7931   -3.0695    4.6933 H         1 <0>         0.1380
     59 H17        -2.4972   -2.2263    3.2487 H         1 <0>         0.1328
     60 H18        -1.3202   -2.4324    1.9303 H         1 <0>         0.1400
     61 H19        -3.6353   -2.3135    1.0481 H         1 <0>         0.1171
     62 H20        -2.9147   -3.9122    0.7384 H         1 <0>         0.1072
     63 H21        -4.8135   -3.1995    3.0216 H         1 <0>         0.1149
     64 H22        -4.6780   -5.5925    3.5902 H         1 <0>         0.1177
     65 H23        -3.5354   -5.8641    2.2516 H         1 <0>         0.1075
     66 H24        -2.3380   -5.6332    4.4116 H         1 <0>         0.1385
     67 H25        -3.0703   -4.0284    4.6458 H         1 <0>         0.1334
     68 H26        -6.9692   -2.4725    3.0355 H         1 <0>         0.1289
     69 H27        -9.3513   -2.0092    2.6325 H         1 <0>         0.1385
     70 H28       -10.5253   -3.0948    0.7634 H         1 <0>         0.1398
     71 H29        -9.3257   -4.6514   -0.7163 H         1 <0>         0.1365
     72 H30        -1.3622   -4.7896    2.3852 H         1 <0>         0.4263
@<TRIPOS>BOND
     1    1    6 ar
     2    1    2 ar
     3    1   45 1
     4    2    3 ar
     5    2   46 1
     6    3    4 ar
     7    3   47 1
     8    4    5 ar
     9    4    7 1
    10    5    6 ar
    11    5   48 1
    12    6   49 1
    13    7   16 ar
    14    7    8 ar
    15    8    9 ar
    16    8   21 1
    17    9   10 ar
    18   10   15 ar
    19   10   11 ar
    20   11   12 ar
    21   11   50 1
    22   12   20 1
    23   12   13 ar
    24   13   14 ar
    25   13   17 1
    26   14   15 ar
    27   14   51 1
    28   15   16 ar
    29   17   18 1
    30   17   19 1
    31   19   20 2
    32   19   52 1
    33   21   26 ar
    34   21   22 ar
    35   22   23 ar
    36   22   53 1
    37   23   24 ar
    38   23   54 1
    39   24   25 ar
    40   24   27 1
    41   25   26 ar
    42   25   55 1
    43   26   56 1
    44   27   28 1
    45   27   57 1
    46   27   58 1
    47   28   33 1
    48   28   29 1
    49   28   72 1
    50   29   30 1
    51   29   59 1
    52   29   60 1
    53   30   31 1
    54   30   61 1
    55   30   62 1
    56   31   32 1
    57   31   34 1
    58   31   63 1
    59   32   33 1
    60   32   64 1
    61   32   65 1
    62   33   66 1
    63   33   67 1
    64   34   43 am
    65   34   35 1
    66   35   40 ar
    67   35   36 ar
    68   36   37 ar
    69   36   68 1
    70   37   38 ar
    71   37   69 1
    72   38   39 ar
    73   38   70 1
    74   39   40 ar
    75   39   71 1
    76   40   41 1
    77   41   42 1
    78   41   43 am
    79   43   44 2
@<TRIPOS>MOLECULE
CHEMBL595349
   31    31     0     0     0
SMALL
USER_CHARGES

@<TRIPOS>ATOM
      1 C1          0.6174    1.2380    0.2422 C.ar      1 <0>        -0.1475
      2 C2          1.9591    1.5530    0.3598 C.ar      1 <0>        -0.1329
      3 C3          2.9180    0.5575    0.2639 C.ar      1 <0>         0.0872
      4 C4          2.5322   -0.7611    0.0495 C.ar      1 <0>         0.1363
      5 C5          1.1855   -1.0774   -0.0681 C.ar      1 <0>         0.1218
      6 C6          0.2273   -0.0742    0.0285 C.ar      1 <0>         0.1551
      7 O1         -1.0933   -0.3813   -0.0868 O.3       1 <0>        -0.6349
      8 P1         -1.7437    0.0441   -1.4968 P.3       1 <0>         2.1097
      9 O2         -1.4986    1.5713   -1.7456 O.2       1 <0>        -1.1847
     10 O3         -1.0814   -0.7856   -2.6490 O.3       1 <0>        -1.1652
     11 O4         -3.2842   -0.2396   -1.4680 O.3       1 <0>        -1.1841
     12 O5          0.8038   -2.3666   -0.2783 O.3       1 <0>        -0.6132
     13 P2          0.4781   -3.1816    1.0714 P.3       1 <0>         2.1440
     14 O6          1.6895   -3.1005    2.0270 O.2       1 <0>        -1.0786
     15 O7         -0.7616   -2.5663    1.7581 O.3       1 <0>        -1.0801
     16 O8          0.1820   -4.7223    0.7099 O.3       1 <0>        -0.8910
     17 O9          3.4731   -1.7399   -0.0453 O.3       1 <0>        -0.6203
     18 P3          4.0526   -1.9492   -1.5327 P.3       1 <0>         2.1360
     19 O10         2.8855   -2.2295   -2.5055 O.2       1 <0>        -1.0664
     20 O11         4.7995   -0.6724   -1.9788 O.3       1 <0>        -1.0837
     21 O12         5.0701   -3.1969   -1.5416 O.3       1 <0>        -0.8931
     22 O13         4.2373    0.8703    0.3790 O.3       1 <0>        -0.6265
     23 P4          4.7101    1.1691    1.8888 P.3       1 <0>         2.1510
     24 O14         3.8450    2.3019    2.4847 O.2       1 <0>        -1.0997
     25 O15         4.5454   -0.1082    2.7423 O.3       1 <0>        -1.0776
     26 O16         6.2562    1.6183    1.8880 O.3       1 <0>        -0.8927
     27 H1         -0.1278    2.0157    0.3215 H         1 <0>         0.1327
     28 H2          2.2599    2.5769    0.5263 H         1 <0>         0.1263
     29 H3         -0.0224   -5.2741    1.4772 H         1 <0>         0.3889
     30 H4          5.4586   -3.3815   -2.4077 H         1 <0>         0.3907
     31 H5          6.6091    1.8148    2.7666 H         1 <0>         0.3927
@<TRIPOS>BOND
     1    1    6 ar
     2    1    2 ar
     3    1   27 1
     4    2    3 ar
     5    2   28 1
     6    3    4 ar
     7    3   22 1
     8    4    5 ar
     9    4   17 1
    10    5    6 ar
    11    5   12 1
    12    6    7 1
    13    7    8 1
    14    8    9 2
    15    8   10 1
    16    8   11 1
    17   12   13 1
    18   13   14 2
    19   13   15 1
    20   13   16 1
    21   16   29 1
    22   17   18 1
    23   18   19 2
    24   18   20 1
    25   18   21 1
    26   21   30 1
    27   22   23 1
    28   23   24 2
    29   23   25 1
    30   23   26 1
    31   26   31 1
@<TRIPOS>MOLECULE
CHEMBL595349
   31    31     0     0     0
SMALL
USER_CHARGES

@<TRIPOS>ATOM
      1 C1          0.6202    1.2387    0.2447 C.ar      1 <0>        -0.1366
      2 C2          1.9631    1.5500    0.3590 C.ar      1 <0>        -0.1602
      3 C3          2.9191    0.5519    0.2609 C.ar      1 <0>         0.1104
      4 C4          2.5291   -0.7658    0.0475 C.ar      1 <0>         0.1248
      5 C5          1.1812   -1.0783   -0.0668 C.ar      1 <0>         0.1772
      6 C6          0.2261   -0.0725    0.0320 C.ar      1 <0>         0.0977
      7 O1         -1.0956   -0.3759   -0.0801 O.3       1 <0>        -0.6171
      8 P1         -1.7484    0.0511   -1.4885 P.3       1 <0>         2.1578
      9 O2         -1.5030    1.5565   -1.7345 O.2       1 <0>        -1.1053
     10 O3         -1.1002   -0.7690   -2.6262 O.3       1 <0>        -1.0790
     11 O4         -3.3322   -0.2361   -1.4550 O.3       1 <0>        -0.8893
     12 O5          0.7955   -2.3665   -0.2760 O.3       1 <0>        -0.6245
     13 P2          0.4713   -3.1806    1.0746 P.3       1 <0>         2.1021
     14 O6          1.7023   -3.1015    2.0403 O.2       1 <0>        -1.1615
     15 O7         -0.7824   -2.5535    1.7742 O.3       1 <0>        -1.1725
     16 O8          0.1784   -4.6791    0.7236 O.3       1 <0>        -1.1869
     17 O9          3.4670   -1.7471   -0.0495 O.3       1 <0>        -0.6107
     18 P3          4.0425   -1.9580   -1.5383 P.3       1 <0>         2.1480
     19 O10         2.8724   -2.2350   -2.5083 O.2       1 <0>        -1.0741
     20 O11         4.7919   -0.6833   -1.9861 O.3       1 <0>        -1.0911
     21 O12         5.0565   -3.2085   -1.5495 O.3       1 <0>        -0.8894
     22 O13         4.2395    0.8610    0.3728 O.3       1 <0>        -0.6278
     23 P4          4.7168    1.1584    1.8814 P.3       1 <0>         2.1476
     24 O14         3.8562    2.2936    2.4795 O.2       1 <0>        -1.0996
     25 O15         4.5507   -0.1184    2.7353 O.3       1 <0>        -1.0704
     26 O16         6.2640    1.6035    1.8768 O.3       1 <0>        -0.8927
     27 H1         -0.1227    2.0184    0.3258 H         1 <0>         0.1259
     28 H2          2.2671    2.5730    0.5247 H         1 <0>         0.1258
     29 H3         -3.7918   -0.0020   -2.2730 H         1 <0>         0.3905
     30 H4          5.4425   -3.3941   -2.4165 H         1 <0>         0.3883
     31 H5          6.6197    1.7990    2.7545 H         1 <0>         0.3928
@<TRIPOS>BOND
     1    1    6 ar
     2    1    2 ar
     3    1   27 1
     4    2    3 ar
     5    2   28 1
     6    3    4 ar
     7    3   22 1
     8    4    5 ar
     9    4   17 1
    10    5    6 ar
    11    5   12 1
    12    6    7 1
    13    7    8 1
    14    8    9 2
    15    8   10 1
    16    8   11 1
    17   11   29 1
    18   12   13 1
    19   13   14 2
    20   13   15 1
    21   13   16 1
    22   17   18 1
    23   18   19 2
    24   18   20 1
    25   18   21 1
    26   21   30 1
    27   22   23 1
    28   23   24 2
    29   23   25 1
    30   23   26 1
    31   26   31 1
@<TRIPOS>MOLECULE
CHEMBL211018
   55    59     0     0     0
SMALL
USER_CHARGES

@<TRIPOS>ATOM
      1 C1         -0.0164    1.3567    0.0095 C.ar      1 <0>        -0.1027
      2 C2          1.1686    2.0905    0.0021 C.ar      1 <0>        -0.0990
      3 C3          2.3785    1.4675   -0.0131 C.ar      1 <0>        -0.1162
      4 C4          2.4375    0.0634   -0.0211 C.ar      1 <0>        -0.0505
      5 C5          3.6681   -0.6153   -0.0364 C.ar      1 <0>        -0.1197
      6 C6          3.6865   -1.9761   -0.0434 C.ar      1 <0>        -0.1163
      7 C7          2.5015   -2.7098   -0.0357 C.ar      1 <0>        -0.1209
      8 C8          1.2917   -2.0868   -0.0209 C.ar      1 <0>        -0.0786
      9 C9          1.2327   -0.6827   -0.0133 C.ar      1 <0>        -0.0472
     10 C10         0.0021   -0.0041    0.0020 C.ar      1 <0>        -0.1051
     11 C11         5.0079   -2.7004   -0.0602 C.3       1 <0>        -0.0990
     12 C12         5.4695   -2.9528    1.3765 C.3       1 <0>         0.0434
     13 H1          4.6891   -3.4848    1.9207 H         1 <0>         0.1565
     14 C13         6.7461   -3.7959    1.3614 C.3       1 <0>         0.0271
     15 O1          7.1124   -4.1297    2.7017 O.3       1 <0>        -0.3220
     16 C14         8.2326   -4.8817    2.8661 C.ar      1 <0>         0.0677
     17 C15         8.6506   -5.2519    4.1382 C.ar      1 <0>        -0.0909
     18 C16         9.8077   -6.0253    4.2552 C.ar      1 <0>        -0.0478
     19 C17        10.4937   -6.3933    3.0989 C.ar      1 <0>         0.0904
     20 N1         10.0614   -6.0194    1.9124 N.ar      1 <0>        -0.4382
     21 C18         8.9699   -5.2941    1.7649 C.ar      1 <0>         0.0247
     22 C19        10.2993   -6.4482    5.5895 C.ar      1 <0>        -0.0369
     23 C20         9.5919   -6.0723    6.7429 C.ar      1 <0>        -0.1140
     24 C21        10.0189   -6.4455    7.9777 C.ar      1 <0>        -0.0740
     25 C22        11.1841   -7.2191    8.1101 C.ar      1 <0>        -0.1088
     26 C23        11.6634   -7.6285    9.3646 C.ar      1 <0>         0.1483
     27 N2         12.7563   -8.3511    9.4444 N.ar      1 <0>        -0.4812
     28 C24        13.4497   -8.7249    8.3777 C.ar      1 <0>         0.0853
     29 C25        13.0697   -8.3795    7.1165 C.ar      1 <0>        -0.1542
     30 C26        11.9062   -7.6046    6.9500 C.ar      1 <0>        -0.0226
     31 C27        11.4472   -7.2141    5.6859 C.ar      1 <0>        -0.0868
     32 N3          5.7386   -1.6686    2.0371 N.4       1 <0>        -0.6373
     33 H2         -0.9633    1.8757    0.0259 H         1 <0>         0.1323
     34 H3          1.1260    3.1696    0.0083 H         1 <0>         0.1313
     35 H4          3.2884    2.0491   -0.0194 H         1 <0>         0.1304
     36 H5          4.5943   -0.0599   -0.0428 H         1 <0>         0.1263
     37 H6          2.5441   -3.7890   -0.0419 H         1 <0>         0.1306
     38 H7          0.3816   -2.6684   -0.0154 H         1 <0>         0.1365
     39 H8         -0.9241   -0.5595    0.0082 H         1 <0>         0.1347
     40 H9          4.8935   -3.6529   -0.5777 H         1 <0>         0.1270
     41 H10         5.7491   -2.0921   -0.5784 H         1 <0>         0.1042
     42 H11         6.5710   -4.7101    0.7942 H         1 <0>         0.1150
     43 H12         7.5512   -3.2278    0.8954 H         1 <0>         0.0932
     44 H13         8.0955   -4.9493    5.0138 H         1 <0>         0.1501
     45 H14        11.3897   -6.9913    3.1769 H         1 <0>         0.1679
     46 H15         8.6476   -5.0132    0.7732 H         1 <0>         0.1589
     47 H16         8.6954   -5.4777    6.6471 H         1 <0>         0.1287
     48 H17         9.4642   -6.1478    8.8552 H         1 <0>         0.1401
     49 H18        11.1336   -7.3488   10.2632 H         1 <0>         0.1673
     50 H19        14.3410   -9.3196    8.5130 H         1 <0>         0.1588
     51 H20        13.6493   -8.6938    6.2611 H         1 <0>         0.1430
     52 H21        11.9856   -7.5047    4.7960 H         1 <0>         0.1389
     53 H22         4.8967   -1.1125    2.0470 H         1 <0>         0.4367
     54 H23         6.0430   -1.8350    2.9845 H         1 <0>         0.4423
     55 H24         6.4610   -1.1761    1.5333 H         1 <0>         0.4322
@<TRIPOS>BOND
     1    1   10 ar
     2    1    2 ar
     3    1   33 1
     4    2    3 ar
     5    2   34 1
     6    3    4 ar
     7    3   35 1
     8    4    9 ar
     9    4    5 ar
    10    5    6 ar
    11    5   36 1
    12    6    7 ar
    13    6   11 1
    14    7    8 ar
    15    7   37 1
    16    8    9 ar
    17    8   38 1
    18    9   10 ar
    19   10   39 1
    20   11   12 1
    21   11   40 1
    22   11   41 1
    23   12   13 1
    24   12   14 1
    25   12   32 1
    26   14   15 1
    27   14   42 1
    28   14   43 1
    29   15   16 1
    30   16   21 ar
    31   16   17 ar
    32   17   18 ar
    33   17   44 1
    34   18   19 ar
    35   18   22 1
    36   19   20 ar
    37   19   45 1
    38   20   21 ar
    39   21   46 1
    40   22   31 ar
    41   22   23 ar
    42   23   24 ar
    43   23   47 1
    44   24   25 ar
    45   24   48 1
    46   25   30 ar
    47   25   26 ar
    48   26   27 ar
    49   26   49 1
    50   27   28 ar
    51   28   29 ar
    52   28   50 1
    53   29   30 ar
    54   29   51 1
    55   30   31 ar
    56   31   52 1
    57   32   53 1
    58   32   54 1
    59   32   55 1
@<TRIPOS>MOLECULE
CHEMBL575811
   59    63     0     0     0
SMALL
USER_CHARGES

@<TRIPOS>ATOM
      1 C1         -0.0167    1.3781    0.0096 C.ar      1 <0>        -0.1010
      2 C2          1.1709    2.0855    0.0021 C.ar      1 <0>        -0.1077
      3 C3          2.3773    1.4107   -0.0130 C.ar      1 <0>        -0.1400
      4 C4          2.3960    0.0285   -0.0201 C.ar      1 <0>        -0.1308
      5 C5          1.2084   -0.6789   -0.0117 C.ar      1 <0>        -0.1028
      6 C6          0.0021   -0.0041    0.0020 C.ar      1 <0>        -0.1053
      7 C7          3.7112   -0.7071   -0.0376 C.3       1 <0>        -0.0971
      8 C8          4.1714   -0.9633    1.3989 C.3       1 <0>         0.0438
      9 H1          3.3868   -1.4885    1.9436 H         1 <0>         0.1554
     10 C9          5.4407   -1.8174    1.3832 C.3       1 <0>         0.0273
     11 O1          5.8049   -2.1541    2.7233 O.3       1 <0>        -0.3228
     12 C10         6.9187   -2.9157    2.8873 C.ar      1 <0>         0.0692
     13 C11         7.3341   -3.2893    4.1592 C.ar      1 <0>        -0.0980
     14 C12         8.4845   -4.0726    4.2756 C.ar      1 <0>        -0.0333
     15 C13         9.1668   -4.4466    3.1191 C.ar      1 <0>         0.0856
     16 N1          8.7371   -4.0691    1.9328 N.ar      1 <0>        -0.4374
     17 C14         7.6518   -3.3345    1.7857 C.ar      1 <0>         0.0193
     18 C15         8.9732   -4.4996    5.6098 C.ar      1 <0>        -0.0851
     19 C16         8.2830   -4.1263    6.7621 C.ar      1 <0>        -0.0604
     20 C17         8.7361   -4.5217    8.0006 C.ar      1 <0>        -0.1382
     21 C18         9.8892   -5.2989    8.1129 C.ar      1 <0>         0.1711
     22 C19        10.5720   -5.6677    6.9593 C.ar      1 <0>        -0.1371
     23 C20        10.1230   -5.2819    5.7189 C.ar      1 <0>        -0.0387
     24 C21        11.7558   -6.4918    7.4113 C.3       1 <0>        -0.0796
     25 C22        11.6291   -6.5209    8.9196 C.2       1 <0>         0.5280
     26 O2         12.3771   -7.0785    9.6946 O.2       1 <0>        -0.4674
     27 N2         10.5326   -5.8131    9.2385 N.am      1 <0>        -0.6620
     28 C23        13.0664   -5.8203    6.9962 C.3       1 <0>        -0.0122
     29 C24        14.2244   -6.7181    7.3483 C.2       1 <0>        -0.0246
     30 C25        14.7639   -7.6560    6.5492 C.2       1 <0>        -0.2010
     31 C26        15.8187   -8.2553    7.2751 C.2       1 <0>        -0.2189
     32 C27        15.8608   -7.6477    8.4745 C.2       1 <0>        -0.0280
     33 O3         14.8965   -6.7136    8.5110 O.3       1 <0>        -0.1613
     34 N3          4.4519    0.3186    2.0592 N.4       1 <0>        -0.6365
     35 H2         -0.9591    1.9053    0.0259 H         1 <0>         0.1330
     36 H3          1.1563    3.1654    0.0076 H         1 <0>         0.1326
     37 H4          3.3051    1.9634   -0.0196 H         1 <0>         0.1229
     38 H5          1.2231   -1.7588   -0.0176 H         1 <0>         0.1308
     39 H6         -0.9258   -0.5567    0.0082 H         1 <0>         0.1335
     40 H7          3.5884   -1.6586   -0.5549 H         1 <0>         0.1255
     41 H8          4.4573   -0.1052   -0.5563 H         1 <0>         0.1039
     42 H9          5.2575   -2.7301    0.8162 H         1 <0>         0.1145
     43 H10         6.2504   -1.2562    0.9167 H         1 <0>         0.0929
     44 H11         6.7821   -2.9819    5.0350 H         1 <0>         0.1484
     45 H12        10.0576   -5.0522    3.1967 H         1 <0>         0.1676
     46 H13         7.3314   -3.0509    0.7941 H         1 <0>         0.1571
     47 H14         7.3897   -3.5244    6.6830 H         1 <0>         0.1338
     48 H15         8.1966   -4.2286    8.8891 H         1 <0>         0.1351
     49 H16        10.6616   -5.5795    4.8313 H         1 <0>         0.1378
     50 H17        11.6967   -7.5009    7.0036 H         1 <0>         0.1330
     51 H18        10.2236   -5.6757   10.1476 H         1 <0>         0.4178
     52 H19        13.0586   -5.6421    5.9209 H         1 <0>         0.1110
     53 H20        13.1702   -4.8707    7.5211 H         1 <0>         0.0868
     54 H21        14.4509   -7.9042    5.5457 H         1 <0>         0.1475
     55 H22        16.4663   -9.0489    6.9326 H         1 <0>         0.1488
     56 H23        16.5548   -7.8705    9.2714 H         1 <0>         0.2023
     57 H24         5.1782    0.8048    1.5550 H         1 <0>         0.4324
     58 H25         3.6148    0.8819    2.0696 H         1 <0>         0.4367
     59 H26         4.7554    0.1497    3.0065 H         1 <0>         0.4421
@<TRIPOS>BOND
     1    1    6 ar
     2    1    2 ar
     3    1   35 1
     4    2    3 ar
     5    2   36 1
     6    3    4 ar
     7    3   37 1
     8    4    5 ar
     9    4    7 1
    10    5    6 ar
    11    5   38 1
    12    6   39 1
    13    7    8 1
    14    7   40 1
    15    7   41 1
    16    8    9 1
    17    8   10 1
    18    8   34 1
    19   10   11 1
    20   10   42 1
    21   10   43 1
    22   11   12 1
    23   12   17 ar
    24   12   13 ar
    25   13   14 ar
    26   13   44 1
    27   14   15 ar
    28   14   18 1
    29   15   16 ar
    30   15   45 1
    31   16   17 ar
    32   17   46 1
    33   18   23 ar
    34   18   19 ar
    35   19   20 ar
    36   19   47 1
    37   20   21 ar
    38   20   48 1
    39   21   27 1
    40   21   22 ar
    41   22   23 ar
    42   22   24 1
    43   23   49 1
    44   24   25 1
    45   24   28 1
    46   24   50 1
    47   25   26 2
    48   25   27 am
    49   27   51 1
    50   28   29 1
    51   28   52 1
    52   28   53 1
    53   29   33 1
    54   29   30 2
    55   30   31 1
    56   30   54 1
    57   31   32 2
    58   31   55 1
    59   32   33 1
    60   32   56 1
    61   34   57 1
    62   34   58 1
    63   34   59 1
@<TRIPOS>MOLECULE
CHEMBL575811
   59    63     0     0     0
SMALL
USER_CHARGES

@<TRIPOS>ATOM
      1 C1         -0.0167    1.3781    0.0096 C.ar      1 <0>        -0.1011
      2 C2          1.1709    2.0855    0.0021 C.ar      1 <0>        -0.1077
      3 C3          2.3773    1.4107   -0.0130 C.ar      1 <0>        -0.1400
      4 C4          2.3960    0.0285   -0.0201 C.ar      1 <0>        -0.1308
      5 C5          1.2084   -0.6789   -0.0117 C.ar      1 <0>        -0.1028
      6 C6          0.0021   -0.0041    0.0020 C.ar      1 <0>        -0.1053
      7 C7          3.7112   -0.7071   -0.0376 C.3       1 <0>        -0.0971
      8 C8          4.1714   -0.9633    1.3989 C.3       1 <0>         0.0438
      9 H1          3.3868   -1.4885    1.9436 H         1 <0>         0.1554
     10 C9          5.4407   -1.8174    1.3832 C.3       1 <0>         0.0273
     11 O1          5.8049   -2.1541    2.7233 O.3       1 <0>        -0.3228
     12 C10         6.9187   -2.9157    2.8873 C.ar      1 <0>         0.0690
     13 C11         7.3341   -3.2893    4.1592 C.ar      1 <0>        -0.0978
     14 C12         8.4845   -4.0726    4.2756 C.ar      1 <0>        -0.0337
     15 C13         9.1668   -4.4466    3.1191 C.ar      1 <0>         0.0859
     16 N1          8.7371   -4.0691    1.9328 N.ar      1 <0>        -0.4374
     17 C14         7.6518   -3.3345    1.7857 C.ar      1 <0>         0.0195
     18 C15         8.9732   -4.4996    5.6098 C.ar      1 <0>        -0.0843
     19 C16         8.2830   -4.1263    6.7621 C.ar      1 <0>        -0.0608
     20 C17         8.7361   -4.5217    8.0006 C.ar      1 <0>        -0.1378
     21 C18         9.8892   -5.2989    8.1129 C.ar      1 <0>         0.1699
     22 C19        10.5720   -5.6677    6.9593 C.ar      1 <0>        -0.1364
     23 C20        10.1230   -5.2819    5.7189 C.ar      1 <0>        -0.0387
     24 C21        11.7558   -6.4918    7.4113 C.3       1 <0>        -0.0797
     25 C22        11.6291   -6.5209    8.9196 C.2       1 <0>         0.5285
     26 O2         12.3771   -7.0785    9.6946 O.2       1 <0>        -0.4691
     27 N2         10.5326   -5.8131    9.2385 N.am      1 <0>        -0.6616
     28 C23        11.6728   -7.9083    6.8389 C.3       1 <0>        -0.0091
     29 C24        12.9214   -8.6704    7.2013 C.2       1 <0>        -0.0380
     30 C25        13.0947   -9.4162    8.3072 C.2       1 <0>        -0.1695
     31 C26        14.4039   -9.9461    8.2429 C.2       1 <0>        -0.2134
     32 C27        14.9523   -9.4924    7.1015 C.2       1 <0>        -0.0353
     33 O3         14.0478   -8.7249    6.4718 O.3       1 <0>        -0.1764
     34 N3          4.4519    0.3186    2.0592 N.4       1 <0>        -0.6366
     35 H2         -0.9591    1.9053    0.0259 H         1 <0>         0.1330
     36 H3          1.1563    3.1654    0.0076 H         1 <0>         0.1326
     37 H4          3.3051    1.9634   -0.0196 H         1 <0>         0.1229
     38 H5          1.2231   -1.7588   -0.0176 H         1 <0>         0.1308
     39 H6         -0.9258   -0.5567    0.0082 H         1 <0>         0.1335
     40 H7          3.5884   -1.6586   -0.5549 H         1 <0>         0.1255
     41 H8          4.4573   -0.1052   -0.5563 H         1 <0>         0.1039
     42 H9          5.2575   -2.7301    0.8162 H         1 <0>         0.1145
     43 H10         6.2504   -1.2562    0.9167 H         1 <0>         0.0929
     44 H11         6.7821   -2.9819    5.0350 H         1 <0>         0.1484
     45 H12        10.0576   -5.0522    3.1967 H         1 <0>         0.1677
     46 H13         7.3314   -3.0509    0.7941 H         1 <0>         0.1571
     47 H14         7.3897   -3.5244    6.6830 H         1 <0>         0.1338
     48 H15         8.1966   -4.2286    8.8891 H         1 <0>         0.1351
     49 H16        10.6616   -5.5795    4.8313 H         1 <0>         0.1377
     50 H17        12.6895   -6.0134    7.1156 H         1 <0>         0.1320
     51 H18        10.2236   -5.6757   10.1476 H         1 <0>         0.4177
     52 H19        10.8030   -8.4175    7.2540 H         1 <0>         0.0978
     53 H20        11.5804   -7.8569    5.7541 H         1 <0>         0.0991
     54 H21        12.3726   -9.5786    9.0937 H         1 <0>         0.1438
     55 H22        14.8737  -10.5910    8.9708 H         1 <0>         0.1486
     56 H23        15.9495   -9.7114    6.7493 H         1 <0>         0.2042
     57 H24         5.1782    0.8048    1.5550 H         1 <0>         0.4324
     58 H25         3.6148    0.8819    2.0696 H         1 <0>         0.4367
     59 H26         4.7554    0.1497    3.0065 H         1 <0>         0.4421
@<TRIPOS>BOND
     1    1    6 ar
     2    1    2 ar
     3    1   35 1
     4    2    3 ar
     5    2   36 1
     6    3    4 ar
     7    3   37 1
     8    4    5 ar
     9    4    7 1
    10    5    6 ar
    11    5   38 1
    12    6   39 1
    13    7    8 1
    14    7   40 1
    15    7   41 1
    16    8    9 1
    17    8   10 1
    18    8   34 1
    19   10   11 1
    20   10   42 1
    21   10   43 1
    22   11   12 1
    23   12   17 ar
    24   12   13 ar
    25   13   14 ar
    26   13   44 1
    27   14   15 ar
    28   14   18 1
    29   15   16 ar
    30   15   45 1
    31   16   17 ar
    32   17   46 1
    33   18   23 ar
    34   18   19 ar
    35   19   20 ar
    36   19   47 1
    37   20   21 ar
    38   20   48 1
    39   21   27 1
    40   21   22 ar
    41   22   23 ar
    42   22   24 1
    43   23   49 1
    44   24   25 1
    45   24   28 1
    46   24   50 1
    47   25   26 2
    48   25   27 am
    49   27   51 1
    50   28   29 1
    51   28   52 1
    52   28   53 1
    53   29   33 1
    54   29   30 2
    55   30   31 1
    56   30   54 1
    57   31   32 2
    58   31   55 1
    59   32   33 1
    60   32   56 1
    61   34   57 1
    62   34   58 1
    63   34   59 1
@<TRIPOS>MOLECULE
CHEMBL203329
   53    56     0     0     0
SMALL
USER_CHARGES

@<TRIPOS>ATOM
      1 C1         -0.0165    1.3620    0.0095 C.ar      1 <0>        -0.1200
      2 C2          1.1697    2.0834    0.0021 C.ar      1 <0>        -0.0933
      3 C3          2.3856    1.4362   -0.0134 C.ar      1 <0>        -0.1117
      4 C4          2.4281    0.0456   -0.0212 C.ar      1 <0>         0.0984
      5 C5          1.2234   -0.6807   -0.0132 C.ar      1 <0>        -0.1180
      6 C6          0.0021   -0.0041    0.0020 C.ar      1 <0>        -0.1135
      7 C7          1.6036   -2.0953   -0.0245 C.2       1 <0>        -0.2359
      8 C8          2.9451   -2.1410   -0.0380 C.2       1 <0>         0.0990
      9 N1          3.4551   -0.8713   -0.0363 N.pl3     1 <0>        -0.5853
     10 H1          4.3995   -0.6501   -0.0442 H         1 <0>         0.4258
     11 C9          0.6664   -3.2754   -0.0210 C.3       1 <0>        -0.0574
     12 C10         0.2361   -3.5891   -1.4554 C.3       1 <0>         0.0354
     13 H2          1.1200   -3.7379   -2.0756 H         1 <0>         0.1436
     14 C11        -0.6144   -4.8610   -1.4661 C.3       1 <0>        -0.1455
     15 C12        -0.9404   -5.2443   -2.9110 C.3       1 <0>        -0.0857
     16 C13        -1.7781   -6.4970   -2.9215 C.ar      1 <0>        -0.1456
     17 C14        -1.1738   -7.7410   -2.9687 C.ar      1 <0>        -0.0536
     18 C15        -1.9932   -8.8772   -2.9768 C.ar      1 <0>        -0.0772
     19 C16        -3.3815   -8.7082   -2.9371 C.ar      1 <0>         0.1887
     20 N2         -3.9073   -7.5008   -2.8933 N.ar      1 <0>        -0.4664
     21 C17        -3.1580   -6.4146   -2.8784 C.ar      1 <0>         0.1226
     22 Cl1        -4.4194  -10.0998   -2.9461 Cl        1 <0>        -0.0069
     23 C18        -1.4034  -10.2266   -3.0268 C.2       1 <0>        -0.1078
     24 C19        -0.0693  -10.3753   -3.0651 C.2       1 <0>        -0.0838
     25 C20         0.5205  -11.7245   -3.1150 C.ar      1 <0>        -0.0242
     26 C21        -0.2925  -12.8664   -3.1293 C.ar      1 <0>        -0.1641
     27 C22         0.3025  -14.1092   -3.1764 C.ar      1 <0>         0.1065
     28 N3          1.6162  -14.2313   -3.2073 N.ar      1 <0>        -0.4805
     29 C23         2.4185  -13.1836   -3.1954 C.ar      1 <0>         0.1035
     30 C24         1.9104  -11.9026   -3.1555 C.ar      1 <0>        -0.1600
     31 N4         -0.5518   -2.4687   -1.9863 N.4       1 <0>        -0.6396
     32 H3         -0.9613    1.8849    0.0259 H         1 <0>         0.1310
     33 H4          1.1388    3.1630    0.0081 H         1 <0>         0.1350
     34 H5          3.3028    2.0064   -0.0198 H         1 <0>         0.1290
     35 H6         -0.9246   -0.5587    0.0082 H         1 <0>         0.1146
     36 H7          3.5346   -3.0459   -0.0490 H         1 <0>         0.1776
     37 H8          1.1742   -4.1414    0.4036 H         1 <0>         0.1172
     38 H9         -0.2127   -3.0396    0.5787 H         1 <0>         0.0954
     39 H10        -0.0618   -5.6715   -0.9910 H         1 <0>         0.1166
     40 H11        -1.5405   -4.6834   -0.9195 H         1 <0>         0.0952
     41 H12        -1.4930   -4.4337   -3.3861 H         1 <0>         0.0751
     42 H13        -0.0143   -5.4219   -3.4576 H         1 <0>         0.0942
     43 H14        -0.0982   -7.8336   -2.9989 H         1 <0>         0.1486
     44 H15        -3.6306   -5.4444   -2.8371 H         1 <0>         0.1633
     45 H16        -2.0440  -11.0961   -3.0326 H         1 <0>         0.1381
     46 H17         0.5713   -9.5058   -3.0592 H         1 <0>         0.1272
     47 H18        -1.3682  -12.7741   -3.1034 H         1 <0>         0.1381
     48 H19        -0.3150  -14.9951   -3.1877 H         1 <0>         0.1610
     49 H20         3.4880  -13.3315   -3.2216 H         1 <0>         0.1600
     50 H21         2.5729  -11.0497   -3.1507 H         1 <0>         0.1372
     51 H22         0.0090   -1.6300   -1.9793 H         1 <0>         0.4369
     52 H23        -0.8356   -2.6756   -2.9322 H         1 <0>         0.4307
     53 H24        -1.3700   -2.3311   -1.4122 H         1 <0>         0.4306
@<TRIPOS>BOND
     1    1    6 ar
     2    1    2 ar
     3    1   32 1
     4    2    3 ar
     5    2   33 1
     6    3    4 ar
     7    3   34 1
     8    4    9 1
     9    4    5 ar
    10    5    6 ar
    11    5    7 1
    12    6   35 1
    13    7    8 2
    14    7   11 1
    15    8    9 1
    16    8   36 1
    17    9   10 1
    18   11   12 1
    19   11   37 1
    20   11   38 1
    21   12   13 1
    22   12   14 1
    23   12   31 1
    24   14   15 1
    25   14   39 1
    26   14   40 1
    27   15   16 1
    28   15   41 1
    29   15   42 1
    30   16   21 ar
    31   16   17 ar
    32   17   18 ar
    33   17   43 1
    34   18   19 ar
    35   18   23 1
    36   19   20 ar
    37   19   22 1
    38   20   21 ar
    39   21   44 1
    40   23   24 2
    41   23   45 1
    42   24   25 1
    43   24   46 1
    44   25   30 ar
    45   25   26 ar
    46   26   27 ar
    47   26   47 1
    48   27   28 ar
    49   27   48 1
    50   28   29 ar
    51   29   30 ar
    52   29   49 1
    53   30   50 1
    54   31   51 1
    55   31   52 1
    56   31   53 1
@<TRIPOS>MOLECULE
CHEMBL1081104
   50    53     0     0     0
SMALL
USER_CHARGES

@<TRIPOS>ATOM
      1 C1         -0.0167    1.3781    0.0096 C.ar      1 <0>        -0.1412
      2 C2          1.1709    2.0855    0.0021 C.ar      1 <0>        -0.0581
      3 C3          2.3773    1.4107   -0.0130 C.ar      1 <0>        -0.1623
      4 C4          2.3960    0.0285   -0.0201 C.ar      1 <0>        -0.0558
      5 C5          1.2085   -0.6789   -0.0117 C.ar      1 <0>        -0.1021
      6 C6          0.0021   -0.0041    0.0020 C.ar      1 <0>        -0.0995
      7 C7         -1.2926   -0.7753    0.0107 C.3       1 <0>        -0.1006
      8 C8         -1.7450   -1.0285   -1.4288 C.3       1 <0>         0.0268
      9 H1         -0.9463   -1.5264   -1.9784 H         1 <0>         0.1568
     10 C9         -2.9907   -1.9168   -1.4231 C.3       1 <0>         0.0956
     11 N1         -3.4936   -2.0615   -2.7914 N.pl3     1 <0>        -0.7203
     12 C10        -4.6200   -2.8255   -3.0370 C.2       1 <0>         0.3309
     13 C11        -5.1852   -3.0454   -4.2510 C.2       1 <0>        -0.3317
     14 C12        -6.3111   -3.8742   -4.0628 C.2       1 <0>         0.1794
     15 N2         -6.4101   -4.1369   -2.7802 N.2       1 <0>        -0.3033
     16 O1         -5.3430   -3.4850   -2.1160 O.3       1 <0>        -0.0967
     17 C13        -7.2232   -4.3627   -5.1271 C.ar      1 <0>        -0.0302
     18 C14        -6.9888   -4.0022   -6.4636 C.ar      1 <0>        -0.0960
     19 C15        -7.8076   -4.4344   -7.4585 C.ar      1 <0>        -0.0788
     20 C16        -8.9063   -5.2545   -7.1526 C.ar      1 <0>        -0.1008
     21 C17        -9.7793   -5.7257   -8.1465 C.ar      1 <0>         0.1468
     22 N3        -10.7941   -6.4904   -7.8180 N.ar      1 <0>        -0.4777
     23 C18       -11.0461   -6.8512   -6.5672 C.ar      1 <0>         0.0838
     24 C19       -10.2606   -6.4475   -5.5307 C.ar      1 <0>        -0.1490
     25 C20        -9.1515   -5.6249   -5.8042 C.ar      1 <0>        -0.0298
     26 C21        -8.2928   -5.1732   -4.7939 C.ar      1 <0>        -0.0599
     27 N4         -2.0599    0.2523   -2.0756 N.4       1 <0>        -0.6403
     28 C22         3.6720    2.1819   -0.0222 C.3       1 <0>         0.5036
     29 F1          4.0857    2.4144    1.2938 F         1 <0>        -0.1687
     30 F2          4.6506    1.4423   -0.6949 F         1 <0>        -0.1713
     31 F3          3.4816    3.4050   -0.6742 F         1 <0>        -0.1727
     32 H2         -0.9591    1.9053    0.0259 H         1 <0>         0.1372
     33 H3          1.1563    3.1654    0.0076 H         1 <0>         0.1473
     34 H4          3.3385   -0.4987   -0.0326 H         1 <0>         0.1481
     35 H5          1.2231   -1.7588   -0.0179 H         1 <0>         0.1452
     36 H6         -1.1443   -1.7285    0.5180 H         1 <0>         0.1332
     37 H7         -2.0551   -0.1993    0.5352 H         1 <0>         0.1109
     38 H8         -2.7351   -2.8985   -1.0242 H         1 <0>         0.1193
     39 H9         -3.7596   -1.4603   -0.7997 H         1 <0>         0.1020
     40 H10        -3.0366   -1.6214   -3.5252 H         1 <0>         0.4176
     41 H11        -4.8349   -2.6545   -5.1949 H         1 <0>         0.1619
     42 H12        -6.1456   -3.3719   -6.7047 H         1 <0>         0.1332
     43 H13        -7.6142   -4.1478   -8.4816 H         1 <0>         0.1436
     44 H14        -9.6159   -5.4588   -9.1802 H         1 <0>         0.1690
     45 H15       -11.8985   -7.4827   -6.3648 H         1 <0>         0.1596
     46 H16       -10.4838   -6.7526   -4.5190 H         1 <0>         0.1435
     47 H17        -8.4666   -5.4519   -3.7650 H         1 <0>         0.1415
     48 H18        -2.7994    0.7132   -1.5668 H         1 <0>         0.4381
     49 H19        -1.2384    0.8381   -2.0794 H         1 <0>         0.4390
     50 H20        -2.3583    0.0853   -3.0249 H         1 <0>         0.4329
@<TRIPOS>BOND
     1    1    6 ar
     2    1    2 ar
     3    1   32 1
     4    2    3 ar
     5    2   33 1
     6    3    4 ar
     7    3   28 1
     8    4    5 ar
     9    4   34 1
    10    5    6 ar
    11    5   35 1
    12    6    7 1
    13    7    8 1
    14    7   36 1
    15    7   37 1
    16    8    9 1
    17    8   10 1
    18    8   27 1
    19   10   11 1
    20   10   38 1
    21   10   39 1
    22   11   12 1
    23   11   40 1
    24   12   16 1
    25   12   13 2
    26   13   14 1
    27   13   41 1
    28   14   15 2
    29   14   17 1
    30   15   16 1
    31   17   26 ar
    32   17   18 ar
    33   18   19 ar
    34   18   42 1
    35   19   20 ar
    36   19   43 1
    37   20   25 ar
    38   20   21 ar
    39   21   22 ar
    40   21   44 1
    41   22   23 ar
    42   23   24 ar
    43   23   45 1
    44   24   25 ar
    45   24   46 1
    46   25   26 ar
    47   26   47 1
    48   27   48 1
    49   27   49 1
    50   27   50 1
    51   28   29 1
    52   28   30 1
    53   28   31 1
@<TRIPOS>MOLECULE
CHEMBL270847
   68    74     0     0     0
SMALL
USER_CHARGES

@<TRIPOS>ATOM
      1 C1         -0.0167    1.3791    0.0096 C.ar      1 <0>        -0.1191
      2 C2          1.1686    2.0923    0.0021 C.ar      1 <0>        -0.1133
      3 C3          2.3774    1.4267   -0.0135 C.ar      1 <0>        -0.1028
      4 C4          2.4025    0.0330   -0.0212 C.ar      1 <0>        -0.0340
      5 C5          1.2049   -0.6804   -0.0131 C.ar      1 <0>        -0.1020
      6 C6          0.0021   -0.0041    0.0020 C.ar      1 <0>        -0.1255
      7 C7          3.6980   -0.6879   -0.0385 C.ar      1 <0>        -0.0825
      8 C8          4.6841   -0.3489   -0.9627 C.ar      1 <0>        -0.0528
      9 C9          5.8876   -1.0590   -0.9374 C.ar      1 <0>         0.0299
     10 C10         6.0599   -2.0752    0.0049 C.ar      1 <0>         0.1186
     11 N1          5.1084   -2.3706    0.8635 N.ar      1 <0>        -0.4617
     12 C11         3.9526   -1.7194    0.8804 C.ar      1 <0>         0.1179
     13 C12         2.9179   -2.0881    1.8739 C.ar      1 <0>         0.0213
     14 C13         2.0882   -1.1075    2.4175 C.ar      1 <0>        -0.0919
     15 C14         1.1261   -1.4572    3.3427 C.ar      1 <0>        -0.0993
     16 C15         0.9836   -2.7773    3.7314 C.ar      1 <0>        -0.1695
     17 C16         1.8039   -3.7543    3.1962 C.ar      1 <0>        -0.0943
     18 C17         2.7655   -3.4181    2.2655 C.ar      1 <0>        -0.0858
     19 C18        -0.0692   -3.1524    4.7423 C.3       1 <0>         0.0480
     20 N2         -1.3218   -3.4774    4.0472 N.4       1 <0>        -0.3850
     21 C19        -1.8302   -2.2776    3.3716 C.3       1 <0>        -0.0066
     22 C20        -3.0912   -2.6295    2.5794 C.3       1 <0>        -0.1647
     23 C21        -4.1568   -3.1671    3.5389 C.3       1 <0>         0.1608
     24 C22        -3.5893   -4.3736    4.2922 C.3       1 <0>        -0.1662
     25 C23        -2.3098   -3.9571    5.0210 C.3       1 <0>         0.0013
     26 N3         -5.3395   -3.5771    2.7776 N.am      1 <0>        -0.5370
     27 C24        -6.6229   -3.0554    2.9218 C.ar      1 <0>         0.0816
     28 C25        -7.1662   -2.0783    3.7421 C.ar      1 <0>        -0.1043
     29 C26        -8.5101   -1.7734    3.6508 C.ar      1 <0>        -0.1039
     30 C27        -9.3170   -2.4395    2.7442 C.ar      1 <0>        -0.1008
     31 C28        -8.7850   -3.4144    1.9234 C.ar      1 <0>        -0.1009
     32 C29        -7.4366   -3.7268    2.0072 C.ar      1 <0>         0.0918
     33 N4         -6.6224   -4.6357    1.3355 N.am      1 <0>        -0.6402
     34 H1         -6.9082   -5.2462    0.6380 H         1 <0>         0.4392
     35 C30        -5.3699   -4.5182    1.8153 C.2       1 <0>         0.6852
     36 O1         -4.4115   -5.1667    1.4388 O.2       1 <0>        -0.5545
     37 C31         6.9664   -0.7381   -1.8979 C.2       1 <0>         0.0622
     38 N5          6.9406    0.2045   -2.8419 N.2       1 <0>        -0.3591
     39 N6          8.0701    0.1624   -3.4621 N.2       1 <0>        -0.1793
     40 N7          8.8020   -0.7638   -2.9494 N.2       1 <0>        -0.1782
     41 N8          8.1586   -1.3306   -1.9867 N.2       1 <0>        -0.3572
     42 H2         -0.9603    1.9042    0.0260 H         1 <0>         0.1209
     43 H3          1.1479    3.1721    0.0082 H         1 <0>         0.1265
     44 H4          3.3022    1.9845   -0.0200 H         1 <0>         0.1295
     45 H5          1.2184   -1.7603   -0.0194 H         1 <0>         0.1186
     46 H6         -0.9264   -0.5557    0.0083 H         1 <0>         0.1171
     47 H7          4.5225    0.4418   -1.6803 H         1 <0>         0.1474
     48 H8          6.9880   -2.6270    0.0287 H         1 <0>         0.1719
     49 H9          2.1987   -0.0766    2.1151 H         1 <0>         0.1409
     50 H10         0.4832   -0.6988    3.7645 H         1 <0>         0.1291
     51 H11         1.6884   -4.7831    3.5041 H         1 <0>         0.1304
     52 H12         3.4019   -4.1824    1.8445 H         1 <0>         0.1412
     53 H13         0.2661   -4.0195    5.3114 H         1 <0>         0.1365
     54 H14        -0.2365   -2.3155    5.4203 H         1 <0>         0.1343
     55 H15        -2.0689   -1.5165    4.1144 H         1 <0>         0.1311
     56 H16        -1.0696   -1.8943    2.6915 H         1 <0>         0.1423
     57 H17        -3.4682   -1.7370    2.0799 H         1 <0>         0.1163
     58 H18        -2.8536   -3.3904    1.8360 H         1 <0>         0.1070
     59 H19        -4.4320   -2.3892    4.2510 H         1 <0>         0.1144
     60 H20        -4.3222   -4.7277    5.0172 H         1 <0>         0.1159
     61 H21        -3.3619   -5.1707    3.5844 H         1 <0>         0.1071
     62 H22        -1.9032   -4.8137    5.5586 H         1 <0>         0.1372
     63 H23        -2.5383   -3.1602    5.7287 H         1 <0>         0.1318
     64 H24        -6.5400   -1.5571    4.4510 H         1 <0>         0.1291
     65 H25        -8.9334   -1.0124    4.2896 H         1 <0>         0.1377
     66 H26       -10.3671   -2.1958    2.6788 H         1 <0>         0.1386
     67 H27        -9.4177   -3.9324    1.2179 H         1 <0>         0.1357
     68 H28        -1.1482   -4.1982    3.3628 H         1 <0>         0.4262
@<TRIPOS>BOND
     1    1    6 ar
     2    1    2 ar
     3    1   42 1
     4    2    3 ar
     5    2   43 1
     6    3    4 ar
     7    3   44 1
     8    4    5 ar
     9    4    7 1
    10    5    6 ar
    11    5   45 1
    12    6   46 1
    13    7   12 ar
    14    7    8 ar
    15    8    9 ar
    16    8   47 1
    17    9   10 ar
    18    9   37 1
    19   10   11 ar
    20   10   48 1
    21   11   12 ar
    22   12   13 1
    23   13   18 ar
    24   13   14 ar
    25   14   15 ar
    26   14   49 1
    27   15   16 ar
    28   15   50 1
    29   16   17 ar
    30   16   19 1
    31   17   18 ar
    32   17   51 1
    33   18   52 1
    34   19   20 1
    35   19   53 1
    36   19   54 1
    37   20   25 1
    38   20   21 1
    39   20   68 1
    40   21   22 1
    41   21   55 1
    42   21   56 1
    43   22   23 1
    44   22   57 1
    45   22   58 1
    46   23   24 1
    47   23   26 1
    48   23   59 1
    49   24   25 1
    50   24   60 1
    51   24   61 1
    52   25   62 1
    53   25   63 1
    54   26   35 am
    55   26   27 1
    56   27   32 ar
    57   27   28 ar
    58   28   29 ar
    59   28   64 1
    60   29   30 ar
    61   29   65 1
    62   30   31 ar
    63   30   66 1
    64   31   32 ar
    65   31   67 1
    66   32   33 1
    67   33   34 1
    68   33   35 am
    69   35   36 2
    70   37   41 2
    71   37   38 1
    72   38   39 1
    73   39   40 2
    74   40   41 1
@<TRIPOS>MOLECULE
CHEMBL205994
   56    60     0     0     0
SMALL
USER_CHARGES

@<TRIPOS>ATOM
      1 C1         -3.2687    0.7047    1.8719 C.ar      1 <0>        -0.1192
      2 C2         -2.3338    1.6935    2.1469 C.ar      1 <0>        -0.0931
      3 C3         -0.9901    1.3950    2.1988 C.ar      1 <0>        -0.1110
      4 C4         -0.5629    0.0901    1.9742 C.ar      1 <0>         0.0985
      5 C5         -1.5142   -0.9082    1.6964 C.ar      1 <0>        -0.1177
      6 C6         -2.8714   -0.5832    1.6482 C.ar      1 <0>        -0.1145
      7 C7         -0.7572   -2.1486    1.5120 C.2       1 <0>        -0.2383
      8 C8          0.5397   -1.8455    1.6799 C.2       1 <0>         0.1028
      9 N1          0.6750   -0.5123    1.9567 N.pl3     1 <0>        -0.5846
     10 H1          1.5176   -0.0592    2.1171 H         1 <0>         0.4264
     11 C9         -1.3264   -3.5074    1.1945 C.3       1 <0>        -0.0543
     12 C10        -1.5190   -3.6390   -0.3176 C.3       1 <0>         0.0267
     13 H2         -0.5754   -3.4341   -0.8233 H         1 <0>         0.1487
     14 C11        -1.9785   -5.0597   -0.6514 C.3       1 <0>         0.0996
     15 N2         -2.2775   -5.1526   -2.0826 N.pl3     1 <0>        -0.7607
     16 C12        -2.7182   -6.3614   -2.6271 C.ar      1 <0>         0.1749
     17 C13        -2.9995   -6.4617   -3.9863 C.ar      1 <0>        -0.1795
     18 C14        -3.4357   -7.6871   -4.4810 C.ar      1 <0>         0.1704
     19 C15        -3.5735   -8.7587   -3.6063 C.ar      1 <0>         0.0335
     20 N3         -3.2975   -8.6239   -2.3248 N.ar      1 <0>        -0.4168
     21 C16        -2.8761   -7.4814   -1.8199 C.ar      1 <0>         0.0139
     22 N4         -3.7313   -7.8382   -5.8381 N.pl3     1 <0>        -0.6729
     23 C17        -3.3276   -8.9873   -6.5155 C.ar      1 <0>         0.1906
     24 C18        -2.5033   -9.9073   -5.9000 C.ar      1 <0>        -0.1739
     25 C19        -2.0953  -11.0572   -6.5688 C.ar      1 <0>        -0.0764
     26 C20        -2.4953  -11.3097   -7.8466 C.ar      1 <0>        -0.1220
     27 C21        -3.3338  -10.3994   -8.5084 C.ar      1 <0>        -0.0799
     28 C22        -3.7609   -9.2263   -7.8344 C.ar      1 <0>        -0.0537
     29 C23        -4.6048   -8.3353   -8.5183 C.ar      1 <0>        -0.1568
     30 C24        -4.9798   -8.6377   -9.7929 C.ar      1 <0>         0.0783
     31 N5         -4.5709   -9.7439  -10.3987 N.ar      1 <0>        -0.4806
     32 C25        -3.7731  -10.6142   -9.8253 C.ar      1 <0>         0.1484
     33 N6         -2.5345   -2.6776   -0.7674 N.4       1 <0>        -0.6375
     34 H3         -4.3189    0.9546    1.8390 H         1 <0>         0.1311
     35 H4         -2.6634    2.7070    2.3216 H         1 <0>         0.1354
     36 H5         -0.2705    2.1714    2.4128 H         1 <0>         0.1294
     37 H6         -3.6043   -1.3472    1.4351 H         1 <0>         0.1146
     38 H7          1.3555   -2.5495    1.6068 H         1 <0>         0.1789
     39 H8         -0.6395   -4.2792    1.5418 H         1 <0>         0.1225
     40 H9         -2.2876   -3.6246    1.6948 H         1 <0>         0.0999
     41 H10        -1.1877   -5.7661   -0.3989 H         1 <0>         0.1110
     42 H11        -2.8741   -5.2963   -0.0770 H         1 <0>         0.0935
     43 H12        -2.1696   -4.3749   -2.6521 H         1 <0>         0.3932
     44 H13        -2.8827   -5.6103   -4.6404 H         1 <0>         0.1365
     45 H14        -3.9114   -9.7134   -3.9815 H         1 <0>         0.1637
     46 H15        -2.6558   -7.4136   -0.7648 H         1 <0>         0.1540
     47 H16        -4.2176   -7.1433   -6.3089 H         1 <0>         0.4127
     48 H17        -2.1706   -9.7324   -4.8875 H         1 <0>         0.1323
     49 H18        -1.4497  -11.7621   -6.0661 H         1 <0>         0.1321
     50 H19        -2.1676  -12.2078   -8.3490 H         1 <0>         0.1369
     51 H20        -4.9497   -7.4289   -8.0431 H         1 <0>         0.1289
     52 H21        -5.6287   -7.9574  -10.3244 H         1 <0>         0.1548
     53 H22        -3.4665  -11.5011  -10.3599 H         1 <0>         0.1690
     54 H23        -2.2314   -1.7407   -0.5473 H         1 <0>         0.4393
     55 H24        -2.6615   -2.7644   -1.7646 H         1 <0>         0.4280
     56 H25        -3.4080   -2.8673   -0.2993 H         1 <0>         0.4333
@<TRIPOS>BOND
     1    1    6 ar
     2    1    2 ar
     3    1   34 1
     4    2    3 ar
     5    2   35 1
     6    3    4 ar
     7    3   36 1
     8    4    9 1
     9    4    5 ar
    10    5    6 ar
    11    5    7 1
    12    6   37 1
    13    7    8 2
    14    7   11 1
    15    8    9 1
    16    8   38 1
    17    9   10 1
    18   11   12 1
    19   11   39 1
    20   11   40 1
    21   12   13 1
    22   12   14 1
    23   12   33 1
    24   14   15 1
    25   14   41 1
    26   14   42 1
    27   15   16 1
    28   15   43 1
    29   16   21 ar
    30   16   17 ar
    31   17   18 ar
    32   17   44 1
    33   18   19 ar
    34   18   22 1
    35   19   20 ar
    36   19   45 1
    37   20   21 ar
    38   21   46 1
    39   22   23 1
    40   22   47 1
    41   23   28 ar
    42   23   24 ar
    43   24   25 ar
    44   24   48 1
    45   25   26 ar
    46   25   49 1
    47   26   27 ar
    48   26   50 1
    49   27   32 ar
    50   27   28 ar
    51   28   29 ar
    52   29   30 ar
    53   29   51 1
    54   30   31 ar
    55   30   52 1
    56   31   32 ar
    57   32   53 1
    58   33   54 1
    59   33   55 1
    60   33   56 1
@<TRIPOS>MOLECULE
CHEMBL205994
   57    61     0     0     0
SMALL
USER_CHARGES

@<TRIPOS>ATOM
      1 C1         -3.2687    0.7047    1.8719 C.ar      1 <0>        -0.1146
      2 C2         -2.3338    1.6935    2.1469 C.ar      1 <0>        -0.0912
      3 C3         -0.9900    1.3950    2.1988 C.ar      1 <0>        -0.1072
      4 C4         -0.5629    0.0901    1.9742 C.ar      1 <0>         0.0986
      5 C5         -1.5142   -0.9082    1.6964 C.ar      1 <0>        -0.1183
      6 C6         -2.8713   -0.5832    1.6482 C.ar      1 <0>        -0.1199
      7 C7         -0.7572   -2.1486    1.5120 C.2       1 <0>        -0.2500
      8 C8          0.5397   -1.8455    1.6799 C.2       1 <0>         0.1091
      9 N1          0.6750   -0.5123    1.9567 N.pl3     1 <0>        -0.5818
     10 H1          1.5176   -0.0592    2.1171 H         1 <0>         0.4288
     11 C9         -1.3263   -3.5074    1.1945 C.3       1 <0>        -0.0516
     12 C10        -1.5190   -3.6390   -0.3176 C.3       1 <0>         0.0257
     13 H2         -0.5754   -3.4341   -0.8233 H         1 <0>         0.1548
     14 C11        -1.9785   -5.0597   -0.6514 C.3       1 <0>         0.0828
     15 N2         -2.2775   -5.1526   -2.0826 N.pl3     1 <0>        -0.7379
     16 C12        -2.7182   -6.3614   -2.6271 C.ar      1 <0>         0.2369
     17 C13        -2.9995   -6.4617   -3.9863 C.ar      1 <0>        -0.1227
     18 C14        -3.4357   -7.6871   -4.4810 C.ar      1 <0>         0.2301
     19 C15        -3.5735   -8.7587   -3.6063 C.ar      1 <0>         0.0496
     20 N3         -3.2975   -8.6239   -2.3248 N.ar      1 <0>        -0.3720
     21 C16        -2.8761   -7.4814   -1.8199 C.ar      1 <0>         0.0089
     22 N4         -3.7313   -7.8382   -5.8381 N.pl3     1 <0>        -0.6528
     23 C17        -3.3276   -8.9873   -6.5155 C.ar      1 <0>         0.1545
     24 C18        -2.5033   -9.9073   -5.9000 C.ar      1 <0>        -0.1595
     25 C19        -2.0953  -11.0572   -6.5688 C.ar      1 <0>        -0.0953
     26 C20        -2.4953  -11.3097   -7.8466 C.ar      1 <0>        -0.0846
     27 C21        -3.3338  -10.3994   -8.5084 C.ar      1 <0>        -0.0871
     28 C22        -3.7609   -9.2263   -7.8344 C.ar      1 <0>        -0.0379
     29 C23        -4.6048   -8.3353   -8.5183 C.ar      1 <0>        -0.1714
     30 C24        -4.9798   -8.6377   -9.7929 C.ar      1 <0>         0.1010
     31 N5         -4.5709   -9.7439  -10.3987 N.ar      1 <0>        -0.4745
     32 C25        -3.7731  -10.6142   -9.8253 C.ar      1 <0>         0.1618
     33 N6         -2.5344   -2.6776   -0.7674 N.4       1 <0>        -0.6398
     34 H3         -4.3189    0.9547    1.8390 H         1 <0>         0.1325
     35 H4         -2.6634    2.7070    2.3215 H         1 <0>         0.1380
     36 H5         -0.2704    2.1714    2.4128 H         1 <0>         0.1321
     37 H6         -3.6043   -1.3472    1.4351 H         1 <0>         0.1124
     38 H7          1.3555   -2.5495    1.6068 H         1 <0>         0.1786
     39 H8         -0.6395   -4.2792    1.5418 H         1 <0>         0.1231
     40 H9         -2.2876   -3.6246    1.6948 H         1 <0>         0.1010
     41 H10        -1.1877   -5.7661   -0.3989 H         1 <0>         0.1230
     42 H11        -2.8741   -5.2963   -0.0770 H         1 <0>         0.1058
     43 H12        -2.1696   -4.3749   -2.6521 H         1 <0>         0.4138
     44 H13        -2.8827   -5.6103   -4.6404 H         1 <0>         0.1753
     45 H14        -3.9114   -9.7134   -3.9815 H         1 <0>         0.2135
     46 H15        -2.6558   -7.4136   -0.7648 H         1 <0>         0.2039
     47 H16        -4.2176   -7.1433   -6.3089 H         1 <0>         0.4309
     48 H17        -2.1706   -9.7324   -4.8875 H         1 <0>         0.1211
     49 H18        -1.4497  -11.7621   -6.0661 H         1 <0>         0.1390
     50 H19        -2.1676  -12.2078   -8.3490 H         1 <0>         0.1460
     51 H20        -4.9497   -7.4289   -8.0431 H         1 <0>         0.1318
     52 H21        -5.6287   -7.9574  -10.3244 H         1 <0>         0.1617
     53 H22        -3.4665  -11.5011  -10.3599 H         1 <0>         0.1759
     54 H23        -2.6615   -2.7644   -1.7646 H         1 <0>         0.4255
     55 H24        -3.4079   -2.8673   -0.2993 H         1 <0>         0.4348
     56 H25        -2.2314   -1.7407   -0.5473 H         1 <0>         0.4471
     57 H26        -3.4030   -9.3883   -1.7371 H         1 <0>         0.4607
@<TRIPOS>BOND
     1    1    6 ar
     2    1    2 ar
     3    1   34 1
     4    2    3 ar
     5    2   35 1
     6    3    4 ar
     7    3   36 1
     8    4    9 1
     9    4    5 ar
    10    5    6 ar
    11    5    7 1
    12    6   37 1
    13    7    8 2
    14    7   11 1
    15    8    9 1
    16    8   38 1
    17    9   10 1
    18   11   12 1
    19   11   39 1
    20   11   40 1
    21   12   13 1
    22   12   14 1
    23   12   33 1
    24   14   15 1
    25   14   41 1
    26   14   42 1
    27   15   16 1
    28   15   43 1
    29   16   21 ar
    30   16   17 ar
    31   17   18 ar
    32   17   44 1
    33   18   19 ar
    34   18   22 1
    35   19   20 ar
    36   19   45 1
    37   20   21 ar
    38   20   57 1
    39   21   46 1
    40   22   23 1
    41   22   47 1
    42   23   28 ar
    43   23   24 ar
    44   24   25 ar
    45   24   48 1
    46   25   26 ar
    47   25   49 1
    48   26   27 ar
    49   26   50 1
    50   27   32 ar
    51   27   28 ar
    52   28   29 ar
    53   29   30 ar
    54   29   51 1
    55   30   31 ar
    56   30   52 1
    57   31   32 ar
    58   32   53 1
    59   33   54 1
    60   33   55 1
    61   33   56 1
@<TRIPOS>MOLECULE
CHEMBL572884
   60    65     0     0     0
SMALL
USER_CHARGES

@<TRIPOS>ATOM
      1 C1         -0.0165    1.3620    0.0095 C.ar      1 <0>        -0.1190
      2 C2          1.1697    2.0834    0.0021 C.ar      1 <0>        -0.0931
      3 C3          2.3856    1.4362   -0.0134 C.ar      1 <0>        -0.1110
      4 C4          2.4281    0.0456   -0.0212 C.ar      1 <0>         0.0986
      5 C5          1.2234   -0.6807   -0.0132 C.ar      1 <0>        -0.1171
      6 C6          0.0021   -0.0041    0.0020 C.ar      1 <0>        -0.1141
      7 C7          1.6036   -2.0953   -0.0245 C.2       1 <0>        -0.2377
      8 C8          2.9451   -2.1410   -0.0380 C.2       1 <0>         0.1040
      9 N1          3.4551   -0.8713   -0.0363 N.pl3     1 <0>        -0.5844
     10 H1          4.3995   -0.6501   -0.0442 H         1 <0>         0.4265
     11 C9          0.6664   -3.2754   -0.0210 C.3       1 <0>        -0.0555
     12 C10         0.2361   -3.5891   -1.4554 C.3       1 <0>         0.0435
     13 H2          1.1200   -3.7379   -2.0756 H         1 <0>         0.1529
     14 C11        -0.6144   -4.8610   -1.4661 C.3       1 <0>         0.0263
     15 O1         -0.9189   -5.2190   -2.8156 O.3       1 <0>        -0.3226
     16 C12        -1.6731   -6.3340   -3.0030 C.ar      1 <0>         0.0700
     17 C13        -2.0063   -6.7503   -4.2858 C.ar      1 <0>        -0.0980
     18 C14        -2.7829   -7.9025   -4.4264 C.ar      1 <0>        -0.0340
     19 C15        -3.1908   -8.5858   -3.2820 C.ar      1 <0>         0.0857
     20 N2         -2.8519   -8.1548   -2.0846 N.ar      1 <0>        -0.4375
     21 C16        -2.1151   -7.0742   -1.9153 C.ar      1 <0>         0.0195
     22 C17        -3.1680   -8.3915   -5.7731 C.ar      1 <0>        -0.0827
     23 C18        -2.7522   -7.7062   -6.9137 C.ar      1 <0>        -0.0591
     24 C19        -3.1096   -8.1591   -8.1638 C.ar      1 <0>        -0.1361
     25 C20        -3.8906   -9.3070   -8.2996 C.ar      1 <0>         0.1699
     26 C21        -4.3012   -9.9855   -7.1577 C.ar      1 <0>        -0.1351
     27 C22        -3.9438   -9.5432   -5.9064 C.ar      1 <0>        -0.0316
     28 C23        -5.1170  -11.1654   -7.6346 C.3       1 <0>         0.0076
     29 C24        -5.0956  -11.0414   -9.1432 C.2       1 <0>         0.5352
     30 O2         -5.6318  -11.7876   -9.9349 O.2       1 <0>        -0.4712
     31 N3         -4.3713   -9.9496   -9.4405 N.am      1 <0>        -0.6586
     32 C25        -6.5295  -11.0745   -7.1172 C.2       1 <0>        -0.1451
     33 C26        -7.2041  -11.9392   -6.3207 C.2       1 <0>        -0.1303
     34 C27        -8.5083  -11.6474   -5.9678 C.2       1 <0>        -0.1591
     35 C28        -9.0741  -10.5051   -6.4287 C.2       1 <0>        -0.1599
     36 S1         -7.7459   -9.7961   -7.3880 S.3       1 <0>         0.0480
     37 N4         -0.5518   -2.4687   -1.9863 N.4       1 <0>        -0.6363
     38 H3         -0.9613    1.8849    0.0259 H         1 <0>         0.1312
     39 H4          1.1388    3.1630    0.0081 H         1 <0>         0.1353
     40 H5          3.3028    2.0064   -0.0198 H         1 <0>         0.1294
     41 H6         -0.9246   -0.5587    0.0082 H         1 <0>         0.1149
     42 H7          3.5346   -3.0459   -0.0490 H         1 <0>         0.1792
     43 H8          1.1742   -4.1414    0.4036 H         1 <0>         0.1218
     44 H9         -0.2127   -3.0396    0.5787 H         1 <0>         0.0998
     45 H10        -0.0618   -5.6715   -0.9910 H         1 <0>         0.1139
     46 H11        -1.5405   -4.6834   -0.9195 H         1 <0>         0.0920
     47 H12        -1.6739   -6.1971   -5.1517 H         1 <0>         0.1483
     48 H13        -3.7916   -9.4781   -3.3784 H         1 <0>         0.1665
     49 H14        -1.8556   -6.7582   -0.9157 H         1 <0>         0.1577
     50 H15        -2.1477   -6.8166   -6.8164 H         1 <0>         0.1350
     51 H16        -2.7842   -7.6231   -9.0431 H         1 <0>         0.1366
     52 H17        -4.2668  -10.0831   -5.0285 H         1 <0>         0.1370
     53 H18        -4.6541  -12.1013   -7.3217 H         1 <0>         0.1471
     54 H19        -4.2017   -9.6435  -10.3451 H         1 <0>         0.4205
     55 H20        -6.7298  -12.8428   -5.9673 H         1 <0>         0.1384
     56 H21        -9.0682  -12.3196   -5.3346 H         1 <0>         0.1400
     57 H22       -10.0690  -10.1215   -6.2569 H         1 <0>         0.1895
     58 H23        -0.8356   -2.6756   -2.9322 H         1 <0>         0.4392
     59 H24        -1.3700   -2.3311   -1.4122 H         1 <0>         0.4300
     60 H25         0.0090   -1.6300   -1.9793 H         1 <0>         0.4381
@<TRIPOS>BOND
     1    1    6 ar
     2    1    2 ar
     3    1   38 1
     4    2    3 ar
     5    2   39 1
     6    3    4 ar
     7    3   40 1
     8    4    9 1
     9    4    5 ar
    10    5    6 ar
    11    5    7 1
    12    6   41 1
    13    7    8 2
    14    7   11 1
    15    8    9 1
    16    8   42 1
    17    9   10 1
    18   11   12 1
    19   11   43 1
    20   11   44 1
    21   12   13 1
    22   12   14 1
    23   12   37 1
    24   14   15 1
    25   14   45 1
    26   14   46 1
    27   15   16 1
    28   16   21 ar
    29   16   17 ar
    30   17   18 ar
    31   17   47 1
    32   18   19 ar
    33   18   22 1
    34   19   20 ar
    35   19   48 1
    36   20   21 ar
    37   21   49 1
    38   22   27 ar
    39   22   23 ar
    40   23   24 ar
    41   23   50 1
    42   24   25 ar
    43   24   51 1
    44   25   31 1
    45   25   26 ar
    46   26   27 ar
    47   26   28 1
    48   27   52 1
    49   28   29 1
    50   28   32 1
    51   28   53 1
    52   29   30 2
    53   29   31 am
    54   31   54 1
    55   32   36 1
    56   32   33 2
    57   33   34 1
    58   33   55 1
    59   34   35 2
    60   34   56 1
    61   35   36 1
    62   35   57 1
    63   37   58 1
    64   37   59 1
    65   37   60 1
@<TRIPOS>MOLECULE
CHEMBL572884
   60    65     0     0     0
SMALL
USER_CHARGES

@<TRIPOS>ATOM
      1 C1         -0.0165    1.3620    0.0095 C.ar      1 <0>        -0.1190
      2 C2          1.1697    2.0834    0.0021 C.ar      1 <0>        -0.0931
      3 C3          2.3856    1.4362   -0.0134 C.ar      1 <0>        -0.1110
      4 C4          2.4281    0.0456   -0.0212 C.ar      1 <0>         0.0986
      5 C5          1.2234   -0.6807   -0.0132 C.ar      1 <0>        -0.1171
      6 C6          0.0021   -0.0041    0.0020 C.ar      1 <0>        -0.1141
      7 C7          1.6036   -2.0953   -0.0245 C.2       1 <0>        -0.2378
      8 C8          2.9451   -2.1410   -0.0380 C.2       1 <0>         0.1040
      9 N1          3.4551   -0.8713   -0.0363 N.pl3     1 <0>        -0.5844
     10 H1          4.3995   -0.6501   -0.0442 H         1 <0>         0.4265
     11 C9          0.6664   -3.2754   -0.0210 C.3       1 <0>        -0.0555
     12 C10         0.2361   -3.5891   -1.4554 C.3       1 <0>         0.0434
     13 H2          1.1200   -3.7379   -2.0756 H         1 <0>         0.1529
     14 C11        -0.6144   -4.8610   -1.4661 C.3       1 <0>         0.0264
     15 O1         -0.9189   -5.2190   -2.8156 O.3       1 <0>        -0.3226
     16 C12        -1.6731   -6.3340   -3.0030 C.ar      1 <0>         0.0700
     17 C13        -2.0063   -6.7503   -4.2858 C.ar      1 <0>        -0.0980
     18 C14        -2.7829   -7.9025   -4.4264 C.ar      1 <0>        -0.0340
     19 C15        -3.1908   -8.5858   -3.2820 C.ar      1 <0>         0.0857
     20 N2         -2.8519   -8.1548   -2.0846 N.ar      1 <0>        -0.4375
     21 C16        -2.1151   -7.0742   -1.9153 C.ar      1 <0>         0.0195
     22 C17        -3.1680   -8.3915   -5.7731 C.ar      1 <0>        -0.0828
     23 C18        -2.7522   -7.7062   -6.9137 C.ar      1 <0>        -0.0591
     24 C19        -3.1096   -8.1591   -8.1638 C.ar      1 <0>        -0.1361
     25 C20        -3.8906   -9.3070   -8.2996 C.ar      1 <0>         0.1699
     26 C21        -4.3012   -9.9855   -7.1577 C.ar      1 <0>        -0.1350
     27 C22        -3.9438   -9.5432   -5.9064 C.ar      1 <0>        -0.0314
     28 C23        -5.1170  -11.1654   -7.6346 C.3       1 <0>         0.0079
     29 C24        -5.0956  -11.0414   -9.1432 C.2       1 <0>         0.5351
     30 O2         -5.6318  -11.7876   -9.9349 O.2       1 <0>        -0.4712
     31 N3         -4.3713   -9.9496   -9.4405 N.am      1 <0>        -0.6587
     32 C25        -4.4770  -12.4593   -7.2020 C.2       1 <0>        -0.1462
     33 C26        -4.9854  -13.4440   -6.4214 C.2       1 <0>        -0.1300
     34 C27        -4.2087  -14.5555   -6.1536 C.2       1 <0>        -0.1595
     35 C28        -2.9614  -14.6280   -6.6794 C.2       1 <0>        -0.1594
     36 S1         -2.8553  -13.0966   -7.5909 S.3       1 <0>         0.0488
     37 N4         -0.5518   -2.4687   -1.9863 N.4       1 <0>        -0.6362
     38 H3         -0.9613    1.8849    0.0259 H         1 <0>         0.1312
     39 H4          1.1388    3.1630    0.0081 H         1 <0>         0.1353
     40 H5          3.3028    2.0064   -0.0198 H         1 <0>         0.1294
     41 H6         -0.9246   -0.5587    0.0082 H         1 <0>         0.1149
     42 H7          3.5346   -3.0459   -0.0490 H         1 <0>         0.1792
     43 H8          1.1742   -4.1414    0.4036 H         1 <0>         0.1218
     44 H9         -0.2127   -3.0396    0.5787 H         1 <0>         0.0998
     45 H10        -0.0618   -5.6715   -0.9910 H         1 <0>         0.1139
     46 H11        -1.5405   -4.6834   -0.9195 H         1 <0>         0.0921
     47 H12        -1.6739   -6.1971   -5.1517 H         1 <0>         0.1483
     48 H13        -3.7916   -9.4781   -3.3784 H         1 <0>         0.1665
     49 H14        -1.8556   -6.7582   -0.9157 H         1 <0>         0.1577
     50 H15        -2.1477   -6.8166   -6.8164 H         1 <0>         0.1350
     51 H16        -2.7842   -7.6231   -9.0431 H         1 <0>         0.1365
     52 H17        -4.2668  -10.0831   -5.0285 H         1 <0>         0.1369
     53 H18        -6.1386  -11.0996   -7.2604 H         1 <0>         0.1470
     54 H19        -4.2017   -9.6435  -10.3451 H         1 <0>         0.4205
     55 H20        -5.9824  -13.3611   -6.0146 H         1 <0>         0.1382
     56 H21        -4.5897  -15.3541   -5.5344 H         1 <0>         0.1400
     57 H22        -2.2246  -15.4110   -6.5769 H         1 <0>         0.1896
     58 H23        -0.8356   -2.6756   -2.9322 H         1 <0>         0.4392
     59 H24        -1.3700   -2.3311   -1.4122 H         1 <0>         0.4299
     60 H25         0.0090   -1.6300   -1.9793 H         1 <0>         0.4381
@<TRIPOS>BOND
     1    1    6 ar
     2    1    2 ar
     3    1   38 1
     4    2    3 ar
     5    2   39 1
     6    3    4 ar
     7    3   40 1
     8    4    9 1
     9    4    5 ar
    10    5    6 ar
    11    5    7 1
    12    6   41 1
    13    7    8 2
    14    7   11 1
    15    8    9 1
    16    8   42 1
    17    9   10 1
    18   11   12 1
    19   11   43 1
    20   11   44 1
    21   12   13 1
    22   12   14 1
    23   12   37 1
    24   14   15 1
    25   14   45 1
    26   14   46 1
    27   15   16 1
    28   16   21 ar
    29   16   17 ar
    30   17   18 ar
    31   17   47 1
    32   18   19 ar
    33   18   22 1
    34   19   20 ar
    35   19   48 1
    36   20   21 ar
    37   21   49 1
    38   22   27 ar
    39   22   23 ar
    40   23   24 ar
    41   23   50 1
    42   24   25 ar
    43   24   51 1
    44   25   31 1
    45   25   26 ar
    46   26   27 ar
    47   26   28 1
    48   27   52 1
    49   28   29 1
    50   28   32 1
    51   28   53 1
    52   29   30 2
    53   29   31 am
    54   31   54 1
    55   32   36 1
    56   32   33 2
    57   33   34 1
    58   33   55 1
    59   34   35 2
    60   34   56 1
    61   35   36 1
    62   35   57 1
    63   37   58 1
    64   37   59 1
    65   37   60 1
@<TRIPOS>MOLECULE
CHEMBL206732
   55    59     0     0     0
SMALL
USER_CHARGES

@<TRIPOS>ATOM
      1 C1         -0.4614    1.5410   -0.0101 C.ar      1 <0>        -0.1189
      2 C2          0.6817    2.3286   -0.0316 C.ar      1 <0>        -0.0929
      3 C3          1.9320    1.7515   -0.0666 C.ar      1 <0>        -0.1109
      4 C4          2.0532    0.3656   -0.0801 C.ar      1 <0>         0.0985
      5 C5          0.8920   -0.4279   -0.0577 C.ar      1 <0>        -0.1177
      6 C6         -0.3654    0.1781   -0.0228 C.ar      1 <0>        -0.1147
      7 C7          1.3517   -1.8186   -0.0794 C.2       1 <0>        -0.2389
      8 C8          2.6933   -1.7880   -0.1121 C.2       1 <0>         0.1031
      9 N1          3.1304   -0.4914   -0.1130 N.pl3     1 <0>        -0.5845
     10 H1          4.0605   -0.2169   -0.1334 H         1 <0>         0.4265
     11 C9          0.4831   -3.0501   -0.0671 C.3       1 <0>        -0.0542
     12 C10         0.0508   -3.3837   -1.4963 C.3       1 <0>         0.0268
     13 H2          0.9328   -3.4803   -2.1295 H         1 <0>         0.1493
     14 C11        -0.7261   -4.7018   -1.4996 C.3       1 <0>         0.0984
     15 N2         -1.2421   -4.9611   -2.8460 N.pl3     1 <0>        -0.7600
     16 C12        -1.9892   -6.1145   -3.0976 C.ar      1 <0>         0.1640
     17 C13        -2.4792   -6.3733   -4.3746 C.ar      1 <0>        -0.1635
     18 C14        -3.2165   -7.5343   -4.5749 C.ar      1 <0>         0.0886
     19 C15        -3.4367   -8.3885   -3.5027 C.ar      1 <0>         0.0668
     20 N3         -2.9566   -8.1099   -2.3073 N.ar      1 <0>        -0.4193
     21 C16        -2.2484   -7.0221   -2.0781 C.ar      1 <0>         0.0397
     22 O1         -3.7157   -7.8293   -5.8038 O.3       1 <0>        -0.2435
     23 C17        -2.8364   -8.1326   -6.7931 C.ar      1 <0>         0.1238
     24 C18        -1.4930   -8.2621   -6.5155 C.ar      1 <0>        -0.1827
     25 C19        -0.5837   -8.5728   -7.5227 C.ar      1 <0>        -0.0877
     26 C20        -0.9924   -8.7572   -8.8091 C.ar      1 <0>        -0.1077
     27 C21        -2.3523   -8.6341   -9.1329 C.ar      1 <0>        -0.0843
     28 C22        -3.2876   -8.3239   -8.1120 C.ar      1 <0>        -0.0333
     29 C23        -4.6440   -8.2125   -8.4632 C.ar      1 <0>        -0.1404
     30 C24        -5.0015   -8.4124   -9.7625 C.ar      1 <0>         0.0774
     31 N4         -4.1079   -8.7071  -10.6967 N.ar      1 <0>        -0.4758
     32 C25        -2.8244   -8.8134  -10.4437 C.ar      1 <0>         0.1448
     33 N5         -0.8069   -2.3084   -2.0120 N.4       1 <0>        -0.6379
     34 H3         -1.4341    2.0092    0.0215 H         1 <0>         0.1313
     35 H4          0.5897    3.4046   -0.0213 H         1 <0>         0.1355
     36 H5          2.8152    2.3729   -0.0839 H         1 <0>         0.1296
     37 H6         -1.2590   -0.4282   -0.0055 H         1 <0>         0.1145
     38 H7          3.3329   -2.6579   -0.1347 H         1 <0>         0.1788
     39 H8          1.0453   -3.8871    0.3472 H         1 <0>         0.1226
     40 H9         -0.3993   -2.8663    0.5459 H         1 <0>         0.1000
     41 H10        -0.0639   -5.5146   -1.2015 H         1 <0>         0.1120
     42 H11        -1.5579   -4.6350   -0.7983 H         1 <0>         0.0944
     43 H12        -1.0651   -4.3319   -3.5627 H         1 <0>         0.3949
     44 H13        -2.2915   -5.6891   -5.1889 H         1 <0>         0.1425
     45 H14        -4.0090   -9.2924   -3.6501 H         1 <0>         0.1701
     46 H15        -1.8689   -6.8318   -1.0851 H         1 <0>         0.1599
     47 H16        -1.1411   -8.1206   -5.5043 H         1 <0>         0.1282
     48 H17         0.4643   -8.6690   -7.2801 H         1 <0>         0.1319
     49 H18        -0.2721   -8.9970   -9.5773 H         1 <0>         0.1401
     50 H19        -5.3881   -7.9737   -7.7178 H         1 <0>         0.1437
     51 H20        -6.0420   -8.3287  -10.0394 H         1 <0>         0.1589
     52 H21        -2.1345   -9.0542  -11.2390 H         1 <0>         0.1705
     53 H22        -0.2945   -1.4392   -2.0098 H         1 <0>         0.4398
     54 H23        -1.0920   -2.5284   -2.9546 H         1 <0>         0.4281
     55 H24        -1.6233   -2.2191   -1.4259 H         1 <0>         0.4335
@<TRIPOS>BOND
     1    1    6 ar
     2    1    2 ar
     3    1   34 1
     4    2    3 ar
     5    2   35 1
     6    3    4 ar
     7    3   36 1
     8    4    9 1
     9    4    5 ar
    10    5    6 ar
    11    5    7 1
    12    6   37 1
    13    7    8 2
    14    7   11 1
    15    8    9 1
    16    8   38 1
    17    9   10 1
    18   11   12 1
    19   11   39 1
    20   11   40 1
    21   12   13 1
    22   12   14 1
    23   12   33 1
    24   14   15 1
    25   14   41 1
    26   14   42 1
    27   15   16 1
    28   15   43 1
    29   16   21 ar
    30   16   17 ar
    31   17   18 ar
    32   17   44 1
    33   18   19 ar
    34   18   22 1
    35   19   20 ar
    36   19   45 1
    37   20   21 ar
    38   21   46 1
    39   22   23 1
    40   23   28 ar
    41   23   24 ar
    42   24   25 ar
    43   24   47 1
    44   25   26 ar
    45   25   48 1
    46   26   27 ar
    47   26   49 1
    48   27   32 ar
    49   27   28 ar
    50   28   29 ar
    51   29   30 ar
    52   29   50 1
    53   30   31 ar
    54   30   51 1
    55   31   32 ar
    56   32   52 1
    57   33   53 1
    58   33   54 1
    59   33   55 1
@<TRIPOS>MOLECULE
CHEMBL203434
   57    60     0     0     0
SMALL
USER_CHARGES

@<TRIPOS>ATOM
      1 C1          6.9997    1.9654    0.2865 C.ar      1 <0>        -0.1016
      2 C2          6.0632    2.0703   -0.7249 C.ar      1 <0>        -0.1105
      3 C3          5.0311    1.1546   -0.8089 C.ar      1 <0>        -0.1150
      4 C4          4.9356    0.1337    0.1183 C.ar      1 <0>        -0.1014
      5 C5          5.8726    0.0283    1.1291 C.ar      1 <0>        -0.1034
      6 C6          6.9040    0.9448    1.2140 C.ar      1 <0>        -0.1096
      7 C7          3.8098   -0.8640    0.0273 C.3       1 <0>        -0.0082
      8 C8          2.5018   -0.1730    0.3147 C.ar      1 <0>        -0.1288
      9 C9          2.0053    0.7636   -0.5725 C.ar      1 <0>        -0.1241
     10 C10         0.8054    1.3974   -0.3088 C.ar      1 <0>        -0.1080
     11 C11         0.1019    1.0944    0.8419 C.ar      1 <0>        -0.0990
     12 C12         0.5981    0.1572    1.7287 C.ar      1 <0>        -0.1078
     13 C13         1.7958   -0.4798    1.4629 C.ar      1 <0>        -0.1048
     14 C14         3.7717   -1.4629   -1.3801 C.3       1 <0>         0.0426
     15 H1          3.6751   -0.6621   -2.1133 H         1 <0>         0.1554
     16 C15         5.0648   -2.2386   -1.6395 C.3       1 <0>         0.0300
     17 O1          5.0806   -2.6994   -2.9920 O.3       1 <0>        -0.3217
     18 C16         6.1683   -3.4115   -3.3886 C.ar      1 <0>         0.0680
     19 C17         6.2596   -3.8884   -4.6892 C.ar      1 <0>        -0.0903
     20 C18         7.4002   -4.6169   -5.0492 C.ar      1 <0>        -0.0572
     21 C19         8.3941   -4.8329   -4.0906 C.ar      1 <0>         0.0856
     22 N1          8.2623   -4.3608   -2.8688 N.ar      1 <0>        -0.4392
     23 C20         7.2038   -3.6658   -2.4994 C.ar      1 <0>         0.0238
     24 C21         7.5499   -5.1474   -6.4161 C.2       1 <0>        -0.1112
     25 C22         8.6481   -5.8443   -6.7493 C.2       1 <0>        -0.0793
     26 C23         8.7977   -6.3747   -8.1159 C.ar      1 <0>        -0.0253
     27 C24         7.8086   -6.1584   -9.0853 C.ar      1 <0>        -0.1656
     28 C25         7.9904   -6.6731  -10.3513 C.ar      1 <0>         0.1035
     29 N2          9.0755   -7.3604  -10.6545 N.ar      1 <0>        -0.4809
     30 C26        10.0310   -7.5874   -9.7730 C.ar      1 <0>         0.1045
     31 C27         9.9359   -7.1048   -8.4850 C.ar      1 <0>        -0.1565
     32 N3          2.6238   -2.3725   -1.4943 N.4       1 <0>        -0.6336
     33 H2          7.8086    2.6781    0.3495 H         1 <0>         0.1306
     34 H3          6.1378    2.8679   -1.4492 H         1 <0>         0.1296
     35 H4          4.2990    1.2370   -1.5986 H         1 <0>         0.1208
     36 H5          5.7976   -0.7689    1.8539 H         1 <0>         0.1272
     37 H6          7.6358    0.8626    2.0040 H         1 <0>         0.1316
     38 H7          3.9688   -1.6587    0.7561 H         1 <0>         0.1150
     39 H8          2.5549    1.0003   -1.4716 H         1 <0>         0.1259
     40 H9          0.4178    2.1296   -1.0017 H         1 <0>         0.1324
     41 H10        -0.8351    1.5901    1.0483 H         1 <0>         0.1327
     42 H11         0.0486   -0.0793    2.6279 H         1 <0>         0.1333
     43 H12         2.1815   -1.2147    2.1539 H         1 <0>         0.1299
     44 H13         5.9207   -1.5858   -1.4680 H         1 <0>         0.1164
     45 H14         5.1180   -3.0924   -0.9641 H         1 <0>         0.0930
     46 H15         5.4718   -3.7029   -5.4043 H         1 <0>         0.1487
     47 H16         9.2789   -5.3930   -4.3547 H         1 <0>         0.1670
     48 H17         7.1394   -3.2927   -1.4879 H         1 <0>         0.1570
     49 H18         6.7762   -4.9755   -7.1498 H         1 <0>         0.1329
     50 H19         9.4218   -6.0162   -6.0156 H         1 <0>         0.1324
     51 H20         6.9177   -5.5975   -8.8440 H         1 <0>         0.1364
     52 H21         7.2341   -6.5120  -11.1052 H         1 <0>         0.1594
     53 H22        10.9016   -8.1555  -10.0659 H         1 <0>         0.1614
     54 H23        10.7241   -7.2903   -7.7704 H         1 <0>         0.1407
     55 H24         1.7686   -1.8523   -1.3673 H         1 <0>         0.4383
     56 H25         2.6241   -2.8014   -2.4075 H         1 <0>         0.4430
     57 H26         2.6903   -3.0884   -0.7864 H         1 <0>         0.4338
@<TRIPOS>BOND
     1    1    6 ar
     2    1    2 ar
     3    1   33 1
     4    2    3 ar
     5    2   34 1
     6    3    4 ar
     7    3   35 1
     8    4    5 ar
     9    4    7 1
    10    5    6 ar
    11    5   36 1
    12    6   37 1
    13    7    8 1
    14    7   14 1
    15    7   38 1
    16    8   13 ar
    17    8    9 ar
    18    9   10 ar
    19    9   39 1
    20   10   11 ar
    21   10   40 1
    22   11   12 ar
    23   11   41 1
    24   12   13 ar
    25   12   42 1
    26   13   43 1
    27   14   15 1
    28   14   16 1
    29   14   32 1
    30   16   17 1
    31   16   44 1
    32   16   45 1
    33   17   18 1
    34   18   23 ar
    35   18   19 ar
    36   19   20 ar
    37   19   46 1
    38   20   21 ar
    39   20   24 1
    40   21   22 ar
    41   21   47 1
    42   22   23 ar
    43   23   48 1
    44   24   25 2
    45   24   49 1
    46   25   26 1
    47   25   50 1
    48   26   31 ar
    49   26   27 ar
    50   27   28 ar
    51   27   51 1
    52   28   29 ar
    53   28   52 1
    54   29   30 ar
    55   30   31 ar
    56   30   53 1
    57   31   54 1
    58   32   55 1
    59   32   56 1
    60   32   57 1
@<TRIPOS>MOLECULE
CHEMBL381610
   67    71     0     0     0
SMALL
USER_CHARGES

@<TRIPOS>ATOM
      1 C1         -0.0167    1.3781    0.0096 C.ar      1 <0>        -0.0920
      2 C2          1.1709    2.0855    0.0021 C.ar      1 <0>        -0.1181
      3 C3          2.3773    1.4107   -0.0130 C.ar      1 <0>        -0.0946
      4 C4          2.3960    0.0285   -0.0201 C.ar      1 <0>        -0.1400
      5 C5          1.2084   -0.6789   -0.0117 C.ar      1 <0>        -0.0946
      6 C6          0.0021   -0.0041    0.0020 C.ar      1 <0>        -0.1182
      7 C7          3.7112   -0.7071   -0.0376 C.3       1 <0>         0.1588
      8 N1          4.1518   -0.9524    1.3379 N.pl3     1 <0>        -0.6939
      9 C8          5.3475   -1.6210    1.5761 C.ar      1 <0>         0.4515
     10 C9          6.1206   -2.0477    0.5048 C.ar      1 <0>        -0.2008
     11 C10         7.3206   -2.7183    0.7619 C.ar      1 <0>         0.1089
     12 C11         7.6889   -2.9295    2.0998 C.ar      1 <0>        -0.1844
     13 C12         6.8631   -2.4730    3.1026 C.ar      1 <0>         0.1602
     14 N2          5.7390   -1.8389    2.8228 N.ar      1 <0>        -0.5129
     15 C13         8.1751   -3.1909   -0.3420 C.2       1 <0>        -0.1471
     16 C14         9.3235   -3.8327   -0.0745 C.2       1 <0>        -0.0264
     17 C15        10.1781   -4.3054   -1.1785 C.ar      1 <0>        -0.0948
     18 C16        11.3758   -4.9814   -0.9125 C.ar      1 <0>        -0.0743
     19 C17        12.1431   -5.4057   -1.9885 C.ar      1 <0>         0.0679
     20 C18        11.7012   -5.1478   -3.2796 C.ar      1 <0>         0.0447
     21 N3         10.5682   -4.5085   -3.4956 N.ar      1 <0>        -0.4401
     22 C19         9.8041   -4.0916   -2.5076 C.ar      1 <0>         0.1012
     23 O1         13.3132   -6.0653   -1.7809 O.3       1 <0>        -0.3204
     24 C20        14.0448   -6.4689   -2.9402 C.3       1 <0>         0.0249
     25 C21        15.3234   -7.1911   -2.5105 C.3       1 <0>         0.0437
     26 H1         15.8938   -6.5506   -1.8377 H         1 <0>         0.1537
     27 C22        16.1670   -7.5129   -3.7456 C.3       1 <0>        -0.0550
     28 C23        17.4805   -8.1130   -3.3145 C.2       1 <0>        -0.2415
     29 C24        18.6361   -7.4556   -3.1292 C.2       1 <0>         0.1059
     30 N4         19.6130   -8.3303   -2.7383 N.pl3     1 <0>        -0.5836
     31 H2         20.5323   -8.0888   -2.5449 H         1 <0>         0.4274
     32 C25        19.0967   -9.6044   -2.6606 C.ar      1 <0>         0.0988
     33 C26        17.7367   -9.5232   -3.0119 C.ar      1 <0>        -0.1175
     34 C27        16.9483  -10.6751   -3.0157 C.ar      1 <0>        -0.1163
     35 C28        17.5016  -11.8771   -2.6741 C.ar      1 <0>        -0.1174
     36 C29        18.8416  -11.9619   -2.3228 C.ar      1 <0>        -0.0924
     37 C30        19.6402  -10.8389   -2.3214 C.ar      1 <0>        -0.1095
     38 N5         14.9723   -8.4385   -1.8187 N.4       1 <0>        -0.6365
     39 H3         -0.9591    1.9053    0.0259 H         1 <0>         0.1326
     40 H4          1.1563    3.1654    0.0076 H         1 <0>         0.1321
     41 H5          3.3051    1.9634   -0.0196 H         1 <0>         0.1259
     42 H6          1.2231   -1.7588   -0.0176 H         1 <0>         0.1258
     43 H7         -0.9258   -0.5567    0.0082 H         1 <0>         0.1321
     44 H8          3.5884   -1.6586   -0.5549 H         1 <0>         0.0965
     45 H9          4.4573   -0.1052   -0.5563 H         1 <0>         0.0965
     46 H10         3.6095   -0.6484    2.0824 H         1 <0>         0.4211
     47 H11         5.8003   -1.8652   -0.5103 H         1 <0>         0.1791
     48 H12         8.6079   -3.4436    2.3395 H         1 <0>         0.1765
     49 H13         7.1408   -2.6328    4.1340 H         1 <0>         0.2075
     50 H14         7.8774   -3.0209   -1.3661 H         1 <0>         0.1482
     51 H15         9.6211   -4.0027    0.9497 H         1 <0>         0.1397
     52 H16        11.6938   -5.1672    0.1027 H         1 <0>         0.1528
     53 H17        12.2950   -5.4757   -4.1200 H         1 <0>         0.1644
     54 H18         8.8811   -3.5753   -2.7269 H         1 <0>         0.1684
     55 H19        13.4321   -7.1413   -3.5406 H         1 <0>         0.0943
     56 H20        14.3047   -5.5900   -3.5301 H         1 <0>         0.1161
     57 H21        15.6323   -8.2237   -4.3757 H         1 <0>         0.1003
     58 H22        16.3528   -6.5975   -4.3074 H         1 <0>         0.1220
     59 H23        18.7744   -6.3936   -3.2684 H         1 <0>         0.1789
     60 H24        15.9046  -10.6166   -3.2873 H         1 <0>         0.1139
     61 H25        16.8912  -12.7680   -2.6771 H         1 <0>         0.1316
     62 H26        19.2644  -12.9188   -2.0545 H         1 <0>         0.1364
     63 H27        20.6816  -10.9150   -2.0453 H         1 <0>         0.1306
     64 H28        14.4443   -9.0313   -2.4414 H         1 <0>         0.4304
     65 H29        15.8155   -8.9147   -1.5353 H         1 <0>         0.4404
     66 H30        14.4160   -8.2262   -1.0041 H         1 <0>         0.4375
     67 H31         5.1811   -1.5266    3.5523 H         1 <0>         0.4429
@<TRIPOS>BOND
     1    1    6 ar
     2    1    2 ar
     3    1   39 1
     4    2    3 ar
     5    2   40 1
     6    3    4 ar
     7    3   41 1
     8    4    5 ar
     9    4    7 1
    10    5    6 ar
    11    5   42 1
    12    6   43 1
    13    7    8 1
    14    7   44 1
    15    7   45 1
    16    8    9 1
    17    8   46 1
    18    9   14 ar
    19    9   10 ar
    20   10   11 ar
    21   10   47 1
    22   11   12 ar
    23   11   15 1
    24   12   13 ar
    25   12   48 1
    26   13   14 ar
    27   13   49 1
    28   14   67 1
    29   15   16 2
    30   15   50 1
    31   16   17 1
    32   16   51 1
    33   17   22 ar
    34   17   18 ar
    35   18   19 ar
    36   18   52 1
    37   19   20 ar
    38   19   23 1
    39   20   21 ar
    40   20   53 1
    41   21   22 ar
    42   22   54 1
    43   23   24 1
    44   24   25 1
    45   24   55 1
    46   24   56 1
    47   25   26 1
    48   25   27 1
    49   25   38 1
    50   27   28 1
    51   27   57 1
    52   27   58 1
    53   28   33 1
    54   28   29 2
    55   29   30 1
    56   29   59 1
    57   30   31 1
    58   30   32 1
    59   32   37 ar
    60   32   33 ar
    61   33   34 ar
    62   34   35 ar
    63   34   60 1
    64   35   36 ar
    65   35   61 1
    66   36   37 ar
    67   36   62 1
    68   37   63 1
    69   38   64 1
    70   38   65 1
    71   38   66 1
@<TRIPOS>MOLECULE
CHEMBL381610
   66    70     0     0     0
SMALL
USER_CHARGES

@<TRIPOS>ATOM
      1 C1         -0.0167    1.3781    0.0096 C.ar      1 <0>        -0.1073
      2 C2          1.1709    2.0855    0.0021 C.ar      1 <0>        -0.1212
      3 C3          2.3773    1.4107   -0.0130 C.ar      1 <0>        -0.0985
      4 C4          2.3960    0.0285   -0.0201 C.ar      1 <0>        -0.1153
      5 C5          1.2084   -0.6789   -0.0117 C.ar      1 <0>        -0.0985
      6 C6          0.0021   -0.0041    0.0020 C.ar      1 <0>        -0.1212
      7 C7          3.7112   -0.7071   -0.0376 C.3       1 <0>         0.1711
      8 N1          4.1518   -0.9524    1.3379 N.pl3     1 <0>        -0.7199
      9 C8          5.3475   -1.6210    1.5761 C.ar      1 <0>         0.4082
     10 C9          6.1206   -2.0477    0.5048 C.ar      1 <0>        -0.2246
     11 C10         7.3206   -2.7183    0.7619 C.ar      1 <0>         0.0164
     12 C11         7.6889   -2.9295    2.0998 C.ar      1 <0>        -0.2273
     13 C12         6.8631   -2.4730    3.1026 C.ar      1 <0>         0.1557
     14 N2          5.7390   -1.8389    2.8228 N.ar      1 <0>        -0.5411
     15 C13         8.1751   -3.1909   -0.3420 C.2       1 <0>        -0.0766
     16 C14         9.3235   -3.8327   -0.0745 C.2       1 <0>        -0.1116
     17 C15        10.1781   -4.3054   -1.1785 C.ar      1 <0>        -0.0552
     18 C16        11.3758   -4.9814   -0.9125 C.ar      1 <0>        -0.0914
     19 C17        12.1431   -5.4057   -1.9885 C.ar      1 <0>         0.0673
     20 C18        11.7012   -5.1478   -3.2796 C.ar      1 <0>         0.0216
     21 N3         10.5682   -4.5085   -3.4956 N.ar      1 <0>        -0.4401
     22 C19         9.8041   -4.0916   -2.5076 C.ar      1 <0>         0.0840
     23 O1         13.3132   -6.0653   -1.7809 O.3       1 <0>        -0.3225
     24 C20        14.0448   -6.4689   -2.9402 C.3       1 <0>         0.0263
     25 C21        15.3234   -7.1911   -2.5105 C.3       1 <0>         0.0434
     26 H1         15.8938   -6.5506   -1.8377 H         1 <0>         0.1530
     27 C22        16.1670   -7.5129   -3.7456 C.3       1 <0>        -0.0555
     28 C23        17.4805   -8.1130   -3.3145 C.2       1 <0>        -0.2377
     29 C24        18.6361   -7.4556   -3.1292 C.2       1 <0>         0.1040
     30 N4         19.6130   -8.3303   -2.7383 N.pl3     1 <0>        -0.5845
     31 H2         20.5323   -8.0888   -2.5449 H         1 <0>         0.4266
     32 C25        19.0967   -9.6044   -2.6606 C.ar      1 <0>         0.0988
     33 C26        17.7367   -9.5232   -3.0119 C.ar      1 <0>        -0.1171
     34 C27        16.9483  -10.6751   -3.0157 C.ar      1 <0>        -0.1142
     35 C28        17.5016  -11.8771   -2.6741 C.ar      1 <0>        -0.1190
     36 C29        18.8416  -11.9619   -2.3228 C.ar      1 <0>        -0.0932
     37 C30        19.6402  -10.8389   -2.3214 C.ar      1 <0>        -0.1109
     38 N5         14.9723   -8.4385   -1.8187 N.4       1 <0>        -0.6362
     39 H3         -0.9591    1.9053    0.0259 H         1 <0>         0.1257
     40 H4          1.1563    3.1654    0.0076 H         1 <0>         0.1261
     41 H5          3.3051    1.9634   -0.0196 H         1 <0>         0.1238
     42 H6          1.2231   -1.7588   -0.0176 H         1 <0>         0.1237
     43 H7         -0.9258   -0.5567    0.0082 H         1 <0>         0.1260
     44 H8          3.5884   -1.6586   -0.5549 H         1 <0>         0.0725
     45 H9          4.4573   -0.1052   -0.5563 H         1 <0>         0.0725
     46 H10         3.6095   -0.6484    2.0824 H         1 <0>         0.4084
     47 H11         5.8003   -1.8652   -0.5103 H         1 <0>         0.1343
     48 H12         8.6079   -3.4436    2.3395 H         1 <0>         0.1324
     49 H13         7.1408   -2.6328    4.1340 H         1 <0>         0.1581
     50 H14         7.8774   -3.0209   -1.3661 H         1 <0>         0.1295
     51 H15         9.6211   -4.0027    0.9497 H         1 <0>         0.1344
     52 H16        11.6938   -5.1672    0.1027 H         1 <0>         0.1486
     53 H17        12.2950   -5.4757   -4.1200 H         1 <0>         0.1576
     54 H18         8.8811   -3.5753   -2.7269 H         1 <0>         0.1666
     55 H19        13.4321   -7.1413   -3.5406 H         1 <0>         0.0918
     56 H20        14.3047   -5.5900   -3.5301 H         1 <0>         0.1137
     57 H21        15.6323   -8.2237   -4.3757 H         1 <0>         0.0998
     58 H22        16.3528   -6.5975   -4.3074 H         1 <0>         0.1217
     59 H23        18.7744   -6.3936   -3.2684 H         1 <0>         0.1791
     60 H24        15.9046  -10.6166   -3.2873 H         1 <0>         0.1148
     61 H25        16.8912  -12.7680   -2.6771 H         1 <0>         0.1312
     62 H26        19.2644  -12.9188   -2.0545 H         1 <0>         0.1353
     63 H27        20.6816  -10.9150   -2.0453 H         1 <0>         0.1295
     64 H28        15.8155   -8.9147   -1.5353 H         1 <0>         0.4381
     65 H29        14.4160   -8.2262   -1.0041 H         1 <0>         0.4393
     66 H30        14.4443   -9.0313   -2.4414 H         1 <0>         0.4299
@<TRIPOS>BOND
     1    1    6 ar
     2    1    2 ar
     3    1   39 1
     4    2    3 ar
     5    2   40 1
     6    3    4 ar
     7    3   41 1
     8    4    5 ar
     9    4    7 1
    10    5    6 ar
    11    5   42 1
    12    6   43 1
    13    7    8 1
    14    7   44 1
    15    7   45 1
    16    8    9 1
    17    8   46 1
    18    9   14 ar
    19    9   10 ar
    20   10   11 ar
    21   10   47 1
    22   11   12 ar
    23   11   15 1
    24   12   13 ar
    25   12   48 1
    26   13   14 ar
    27   13   49 1
    28   15   16 2
    29   15   50 1
    30   16   17 1
    31   16   51 1
    32   17   22 ar
    33   17   18 ar
    34   18   19 ar
    35   18   52 1
    36   19   20 ar
    37   19   23 1
    38   20   21 ar
    39   20   53 1
    40   21   22 ar
    41   22   54 1
    42   23   24 1
    43   24   25 1
    44   24   55 1
    45   24   56 1
    46   25   26 1
    47   25   27 1
    48   25   38 1
    49   27   28 1
    50   27   57 1
    51   27   58 1
    52   28   33 1
    53   28   29 2
    54   29   30 1
    55   29   59 1
    56   30   31 1
    57   30   32 1
    58   32   37 ar
    59   32   33 ar
    60   33   34 ar
    61   34   35 ar
    62   34   60 1
    63   35   36 ar
    64   35   61 1
    65   36   37 ar
    66   36   62 1
    67   37   63 1
    68   38   64 1
    69   38   65 1
    70   38   66 1
@<TRIPOS>MOLECULE
CHEMBL1081829
   48    51     0     0     0
SMALL
USER_CHARGES

@<TRIPOS>ATOM
      1 C1         -0.0167    1.3781    0.0096 C.ar      1 <0>        -0.1414
      2 C2          1.1709    2.0855    0.0021 C.ar      1 <0>        -0.0582
      3 C3          2.3773    1.4107   -0.0130 C.ar      1 <0>        -0.1632
      4 C4          2.3960    0.0285   -0.0201 C.ar      1 <0>        -0.0560
      5 C5          1.2085   -0.6789   -0.0117 C.ar      1 <0>        -0.1024
      6 C6          0.0021   -0.0041    0.0020 C.ar      1 <0>        -0.0981
      7 C7         -1.2926   -0.7753    0.0107 C.3       1 <0>        -0.0996
      8 C8         -1.7450   -1.0285   -1.4288 C.3       1 <0>         0.0246
      9 H1         -0.9463   -1.5264   -1.9784 H         1 <0>         0.1546
     10 C9         -2.9907   -1.9168   -1.4231 C.3       1 <0>         0.1149
     11 N1         -3.4936   -2.0615   -2.7914 N.pl3     1 <0>        -0.7078
     12 C10        -4.6212   -2.8264   -3.0373 C.2       1 <0>         0.2718
     13 N2         -5.3661   -3.4847   -2.1731 N.2       1 <0>        -0.5583
     14 C11        -6.4188   -4.1742   -2.5641 C.2       1 <0>         0.0694
     15 C12        -6.6944   -4.1698   -3.9047 C.2       1 <0>        -0.1516
     16 S1         -5.3737   -3.1324   -4.5112 S.3       1 <0>         0.1260
     17 C13        -7.7871   -4.8355   -4.6455 C.ar      1 <0>        -0.0458
     18 C14        -8.7341   -5.6044   -3.9536 C.ar      1 <0>        -0.0489
     19 C15        -9.7477   -6.2247   -4.6210 C.ar      1 <0>        -0.1296
     20 C16        -9.8547   -6.1011   -6.0055 C.ar      1 <0>         0.1373
     21 C17        -8.9111   -5.3316   -6.7137 C.ar      1 <0>        -0.1763
     22 C18        -7.8765   -4.6932   -6.0235 C.ar      1 <0>        -0.0228
     23 C19        -9.2963   -5.4022   -8.1201 C.2       1 <0>         0.0797
     24 N3        -10.3628   -6.1449   -8.2036 N.2       1 <0>        -0.2401
     25 N4        -10.7376   -6.5926   -6.9329 N.pl3     1 <0>        -0.5050
     26 H2        -11.4997   -7.1604   -6.7385 H         1 <0>         0.4444
     27 N5         -2.0599    0.2523   -2.0756 N.4       1 <0>        -0.6400
     28 C20         3.6720    2.1819   -0.0222 C.3       1 <0>         0.5037
     29 F1          4.0857    2.4144    1.2938 F         1 <0>        -0.1689
     30 F2          4.6506    1.4423   -0.6949 F         1 <0>        -0.1715
     31 F3          3.4816    3.4050   -0.6742 F         1 <0>        -0.1729
     32 H3         -0.9591    1.9053    0.0259 H         1 <0>         0.1371
     33 H4          1.1563    3.1654    0.0076 H         1 <0>         0.1470
     34 H5          3.3385   -0.4987   -0.0326 H         1 <0>         0.1477
     35 H6          1.2231   -1.7588   -0.0179 H         1 <0>         0.1451
     36 H7         -1.1443   -1.7285    0.5180 H         1 <0>         0.1325
     37 H8         -2.0551   -0.1993    0.5352 H         1 <0>         0.1102
     38 H9         -2.7351   -2.8985   -1.0242 H         1 <0>         0.1159
     39 H10        -3.7596   -1.4603   -0.7997 H         1 <0>         0.0988
     40 H11        -3.0366   -1.6214   -3.5252 H         1 <0>         0.4095
     41 H12        -7.0338   -4.7166   -1.8612 H         1 <0>         0.1791
     42 H13        -8.6593   -5.7063   -2.8811 H         1 <0>         0.1357
     43 H14       -10.4699   -6.8141   -4.0757 H         1 <0>         0.1357
     44 H15        -7.1510   -4.0979   -6.5579 H         1 <0>         0.1288
     45 H16        -8.7876   -4.9239   -8.9441 H         1 <0>         0.2013
     46 H17        -2.7994    0.7132   -1.5668 H         1 <0>         0.4376
     47 H18        -1.2384    0.8381   -2.0794 H         1 <0>         0.4375
     48 H19        -2.3583    0.0853   -3.0249 H         1 <0>         0.4324
@<TRIPOS>BOND
     1    1    6 ar
     2    1    2 ar
     3    1   32 1
     4    2    3 ar
     5    2   33 1
     6    3    4 ar
     7    3   28 1
     8    4    5 ar
     9    4   34 1
    10    5    6 ar
    11    5   35 1
    12    6    7 1
    13    7    8 1
    14    7   36 1
    15    7   37 1
    16    8    9 1
    17    8   10 1
    18    8   27 1
    19   10   11 1
    20   10   38 1
    21   10   39 1
    22   11   12 1
    23   11   40 1
    24   12   16 1
    25   12   13 2
    26   13   14 1
    27   14   15 2
    28   14   41 1
    29   15   16 1
    30   15   17 1
    31   17   22 ar
    32   17   18 ar
    33   18   19 ar
    34   18   42 1
    35   19   20 ar
    36   19   43 1
    37   20   25 1
    38   20   21 ar
    39   21   22 ar
    40   21   23 1
    41   22   44 1
    42   23   24 2
    43   23   45 1
    44   24   25 1
    45   25   26 1
    46   27   46 1
    47   27   47 1
    48   27   48 1
    49   28   29 1
    50   28   30 1
    51   28   31 1
@<TRIPOS>MOLECULE
CHEMBL1081660
   49    52     0     0     0
SMALL
USER_CHARGES

@<TRIPOS>ATOM
      1 C1         -0.0167    1.3781    0.0096 C.ar      1 <0>        -0.1414
      2 C2          1.1709    2.0855    0.0021 C.ar      1 <0>        -0.0582
      3 C3          2.3773    1.4107   -0.0130 C.ar      1 <0>        -0.1629
      4 C4          2.3960    0.0285   -0.0201 C.ar      1 <0>        -0.0559
      5 C5          1.2085   -0.6789   -0.0117 C.ar      1 <0>        -0.1023
      6 C6          0.0021   -0.0041    0.0020 C.ar      1 <0>        -0.0985
      7 C7         -1.2926   -0.7753    0.0107 C.3       1 <0>        -0.0996
      8 C8         -1.7450   -1.0285   -1.4288 C.3       1 <0>         0.0246
      9 H1         -0.9463   -1.5264   -1.9784 H         1 <0>         0.1548
     10 C9         -2.9907   -1.9168   -1.4231 C.3       1 <0>         0.1141
     11 N1         -3.4936   -2.0615   -2.7914 N.pl3     1 <0>        -0.7068
     12 C10        -4.6213   -2.8264   -3.0373 C.2       1 <0>         0.2780
     13 N2         -5.3661   -3.4847   -2.1731 N.2       1 <0>        -0.5587
     14 C11        -6.4190   -4.1740   -2.5641 C.2       1 <0>         0.0790
     15 C12        -6.6947   -4.1693   -3.9047 C.2       1 <0>        -0.1617
     16 S1         -5.3737   -3.1325   -4.5112 S.3       1 <0>         0.1264
     17 C13        -7.7873   -4.8353   -4.6455 C.ar      1 <0>        -0.0371
     18 C14        -8.7332   -5.6039   -3.9565 C.ar      1 <0>        -0.0384
     19 C15        -9.7469   -6.2240   -4.6286 C.ar      1 <0>        -0.1166
     20 C16        -9.8516   -6.0987   -6.0099 C.ar      1 <0>         0.1124
     21 C17        -8.9102   -5.3307   -6.7130 C.ar      1 <0>        -0.2001
     22 C18        -7.8786   -4.6935   -6.0260 C.ar      1 <0>        -0.0268
     23 C19        -9.2944   -5.3979   -8.1317 C.2       1 <0>         0.3776
     24 N3        -10.3620   -6.1428   -8.2078 N.2       1 <0>        -0.3490
     25 O1        -10.7252   -6.5864   -6.9162 O.3       1 <0>        -0.0839
     26 N4         -8.6424   -4.7829   -9.1911 N.pl3     1 <0>        -0.8150
     27 N5         -2.0599    0.2523   -2.0756 N.4       1 <0>        -0.6401
     28 C20         3.6720    2.1819   -0.0222 C.3       1 <0>         0.5037
     29 F1          4.0857    2.4144    1.2938 F         1 <0>        -0.1688
     30 F2          4.6506    1.4423   -0.6949 F         1 <0>        -0.1715
     31 F3          3.4816    3.4050   -0.6742 F         1 <0>        -0.1729
     32 H2         -0.9591    1.9053    0.0259 H         1 <0>         0.1371
     33 H3          1.1563    3.1654    0.0076 H         1 <0>         0.1471
     34 H4          3.3385   -0.4987   -0.0326 H         1 <0>         0.1479
     35 H5          1.2231   -1.7588   -0.0179 H         1 <0>         0.1451
     36 H6         -1.1443   -1.7285    0.5180 H         1 <0>         0.1327
     37 H7         -2.0551   -0.1993    0.5352 H         1 <0>         0.1104
     38 H8         -2.7351   -2.8985   -1.0242 H         1 <0>         0.1168
     39 H9         -3.7596   -1.4603   -0.7997 H         1 <0>         0.0998
     40 H10        -3.0366   -1.6214   -3.5252 H         1 <0>         0.4099
     41 H11        -7.0340   -4.7164   -1.8612 H         1 <0>         0.1814
     42 H12        -8.6602   -5.7075   -2.8839 H         1 <0>         0.1455
     43 H13       -10.4701   -6.8144   -4.0857 H         1 <0>         0.1503
     44 H14        -7.1538   -4.0983   -6.5615 H         1 <0>         0.1294
     45 H15        -7.8513   -4.2459   -9.0278 H         1 <0>         0.4162
     46 H16        -8.9779   -4.8899  -10.0950 H         1 <0>         0.4185
     47 H17        -1.2384    0.8381   -2.0794 H         1 <0>         0.4379
     48 H18        -2.3583    0.0853   -3.0249 H         1 <0>         0.4320
     49 H19        -2.7994    0.7132   -1.5668 H         1 <0>         0.4378
@<TRIPOS>BOND
     1    1    6 ar
     2    1    2 ar
     3    1   32 1
     4    2    3 ar
     5    2   33 1
     6    3    4 ar
     7    3   28 1
     8    4    5 ar
     9    4   34 1
    10    5    6 ar
    11    5   35 1
    12    6    7 1
    13    7    8 1
    14    7   36 1
    15    7   37 1
    16    8    9 1
    17    8   10 1
    18    8   27 1
    19   10   11 1
    20   10   38 1
    21   10   39 1
    22   11   12 1
    23   11   40 1
    24   12   16 1
    25   12   13 2
    26   13   14 1
    27   14   15 2
    28   14   41 1
    29   15   16 1
    30   15   17 1
    31   17   22 ar
    32   17   18 ar
    33   18   19 ar
    34   18   42 1
    35   19   20 ar
    36   19   43 1
    37   20   25 1
    38   20   21 ar
    39   21   22 ar
    40   21   23 1
    41   22   44 1
    42   23   24 2
    43   23   26 1
    44   24   25 1
    45   26   45 1
    46   26   46 1
    47   27   47 1
    48   27   48 1
    49   27   49 1
    50   28   29 1
    51   28   30 1
    52   28   31 1
@<TRIPOS>MOLECULE
CHEMBL207496
   52    56     0     0     0
SMALL
USER_CHARGES

@<TRIPOS>ATOM
      1 C1         -0.0165    1.3620    0.0095 C.ar      1 <0>        -0.1186
      2 C2          1.1697    2.0834    0.0021 C.ar      1 <0>        -0.0929
      3 C3          2.3856    1.4362   -0.0134 C.ar      1 <0>        -0.1107
      4 C4          2.4281    0.0456   -0.0212 C.ar      1 <0>         0.0987
      5 C5          1.2234   -0.6807   -0.0132 C.ar      1 <0>        -0.1172
      6 C6          0.0021   -0.0041    0.0020 C.ar      1 <0>        -0.1146
      7 C7          1.6036   -2.0953   -0.0245 C.2       1 <0>        -0.2386
      8 C8          2.9451   -2.1410   -0.0380 C.2       1 <0>         0.1046
      9 N1          3.4551   -0.8713   -0.0363 N.pl3     1 <0>        -0.5841
     10 H1          4.3995   -0.6501   -0.0442 H         1 <0>         0.4267
     11 C9          0.6664   -3.2754   -0.0210 C.3       1 <0>        -0.0552
     12 C10         0.2361   -3.5891   -1.4554 C.3       1 <0>         0.0434
     13 H2          1.1200   -3.7379   -2.0756 H         1 <0>         0.1535
     14 C11        -0.6144   -4.8610   -1.4661 C.3       1 <0>         0.0256
     15 O1         -0.9189   -5.2190   -2.8156 O.3       1 <0>        -0.3189
     16 C12        -1.6724   -6.3330   -3.0028 C.ar      1 <0>         0.0933
     17 C13        -2.1204   -7.0708   -1.9271 C.ar      1 <0>        -0.0010
     18 N2         -2.8559   -8.1594   -2.0930 N.ar      1 <0>        -0.4351
     19 C14        -3.2073   -8.6094   -3.2739 C.ar      1 <0>         0.1475
     20 C15        -2.8043   -7.9330   -4.4389 C.ar      1 <0>         0.1118
     21 C16        -2.0197   -6.7588   -4.3004 C.ar      1 <0>        -0.0928
     22 C17        -1.6101   -6.0633   -5.4507 C.ar      1 <0>        -0.0455
     23 C18        -1.9935   -6.5496   -6.6668 C.ar      1 <0>        -0.1436
     24 C19        -2.7749   -7.7136   -6.7388 C.ar      1 <0>         0.2174
     25 N3         -3.1452   -8.3658   -5.6537 N.ar      1 <0>        -0.4437
     26 C20        -3.1840   -8.2294   -8.0683 C.ar      1 <0>        -0.0246
     27 C21        -2.7973   -7.5763   -9.2419 C.ar      1 <0>        -0.1501
     28 C22        -3.1996   -8.0905  -10.4580 C.ar      1 <0>         0.1017
     29 N4         -3.9381   -9.1816  -10.5208 N.ar      1 <0>        -0.4703
     30 C23        -4.3242   -9.8277   -9.4378 C.ar      1 <0>         0.1016
     31 C24        -3.9619   -9.3851   -8.1816 C.ar      1 <0>        -0.1263
     32 N5         -0.5518   -2.4687   -1.9863 N.4       1 <0>        -0.6366
     33 H3         -0.9613    1.8849    0.0259 H         1 <0>         0.1314
     34 H4          1.1388    3.1630    0.0081 H         1 <0>         0.1356
     35 H5          3.3028    2.0064   -0.0198 H         1 <0>         0.1297
     36 H6         -0.9246   -0.5587    0.0082 H         1 <0>         0.1146
     37 H7          3.5346   -3.0459   -0.0490 H         1 <0>         0.1791
     38 H8          1.1742   -4.1414    0.4036 H         1 <0>         0.1222
     39 H9         -0.2127   -3.0396    0.5787 H         1 <0>         0.1004
     40 H10        -0.0618   -5.6715   -0.9910 H         1 <0>         0.1165
     41 H11        -1.5405   -4.6834   -0.9195 H         1 <0>         0.0946
     42 H12        -1.8651   -6.7538   -0.9267 H         1 <0>         0.1609
     43 H13        -3.8084   -9.5032   -3.3518 H         1 <0>         0.1823
     44 H14        -1.0093   -5.1691   -5.3745 H         1 <0>         0.1486
     45 H15        -1.6967   -6.0400   -7.5716 H         1 <0>         0.1520
     46 H16        -2.1930   -6.6823   -9.1979 H         1 <0>         0.1401
     47 H17        -2.9061   -7.5927  -11.3703 H         1 <0>         0.1639
     48 H18        -4.9286  -10.7175   -9.5354 H         1 <0>         0.1650
     49 H19        -4.2781   -9.9215   -7.2992 H         1 <0>         0.1498
     50 H20        -1.3700   -2.3311   -1.4122 H         1 <0>         0.4305
     51 H21         0.0090   -1.6300   -1.9793 H         1 <0>         0.4389
     52 H22        -0.8356   -2.6756   -2.9322 H         1 <0>         0.4381
@<TRIPOS>BOND
     1    1    6 ar
     2    1    2 ar
     3    1   33 1
     4    2    3 ar
     5    2   34 1
     6    3    4 ar
     7    3   35 1
     8    4    9 1
     9    4    5 ar
    10    5    6 ar
    11    5    7 1
    12    6   36 1
    13    7    8 2
    14    7   11 1
    15    8    9 1
    16    8   37 1
    17    9   10 1
    18   11   12 1
    19   11   38 1
    20   11   39 1
    21   12   13 1
    22   12   14 1
    23   12   32 1
    24   14   15 1
    25   14   40 1
    26   14   41 1
    27   15   16 1
    28   16   21 ar
    29   16   17 ar
    30   17   18 ar
    31   17   42 1
    32   18   19 ar
    33   19   20 ar
    34   19   43 1
    35   20   25 ar
    36   20   21 ar
    37   21   22 ar
    38   22   23 ar
    39   22   44 1
    40   23   24 ar
    41   23   45 1
    42   24   25 ar
    43   24   26 1
    44   26   31 ar
    45   26   27 ar
    46   27   28 ar
    47   27   46 1
    48   28   29 ar
    49   28   47 1
    50   29   30 ar
    51   30   31 ar
    52   30   48 1
    53   31   49 1
    54   32   50 1
    55   32   51 1
    56   32   52 1
@<TRIPOS>MOLECULE
CHEMBL377687
   65    71     0     0     0
SMALL
USER_CHARGES

@<TRIPOS>ATOM
      1 C1         -0.0165    1.3620    0.0095 C.ar      1 <0>        -0.1440
      2 C2          1.1697    2.0834    0.0021 C.ar      1 <0>        -0.0958
      3 C3          2.3856    1.4362   -0.0134 C.ar      1 <0>        -0.1318
      4 C4          2.4281    0.0456   -0.0212 C.ar      1 <0>         0.1024
      5 C5          1.2234   -0.6807   -0.0132 C.ar      1 <0>        -0.0848
      6 C6          0.0021   -0.0041    0.0020 C.ar      1 <0>        -0.0592
      7 C7          1.6036   -2.0953   -0.0245 C.2       1 <0>        -0.1667
      8 C8          2.9451   -2.1410   -0.0380 C.2       1 <0>         0.0452
      9 N1          3.4551   -0.8713   -0.0363 N.pl3     1 <0>        -0.5938
     10 H1          4.3995   -0.6501   -0.0442 H         1 <0>         0.4147
     11 C9          0.6664   -3.2754   -0.0210 C.3       1 <0>        -0.0604
     12 C10         0.2361   -3.5891   -1.4554 C.3       1 <0>         0.1666
     13 H2          1.1200   -3.7379   -2.0756 H         1 <0>         0.0991
     14 C11        -0.6144   -4.8610   -1.4661 C.3       1 <0>         0.0453
     15 O1         -1.7110   -4.7083   -0.5627 O.3       1 <0>        -0.3016
     16 C12        -2.5699   -5.7559   -0.4522 C.ar      1 <0>         0.0887
     17 C13        -3.6637   -5.6816    0.4011 C.ar      1 <0>        -0.1024
     18 C14        -4.5175   -6.7839    0.4793 C.ar      1 <0>        -0.0498
     19 C15        -4.2413   -7.9084   -0.2964 C.ar      1 <0>         0.0722
     20 N2         -3.1923   -7.9355   -1.0924 N.ar      1 <0>        -0.4406
     21 C16        -2.3684   -6.9109   -1.1949 C.ar      1 <0>         0.0181
     22 C17        -5.7003   -6.7585    1.3749 C.ar      1 <0>        -0.0807
     23 C18        -5.9716   -5.6258    2.1439 C.ar      1 <0>        -0.0290
     24 C19        -7.0686   -5.5916    2.9799 C.ar      1 <0>        -0.1438
     25 C20        -7.9200   -6.6870    3.0675 C.ar      1 <0>         0.1997
     26 C21        -7.6496   -7.8287    2.2941 C.ar      1 <0>        -0.2340
     27 C22        -6.5453   -7.8617    1.4462 C.ar      1 <0>         0.0100
     28 C23        -8.7124   -8.8055    2.5990 C.2       1 <0>         0.3902
     29 O2         -8.8460   -9.9213    2.1412 O.2       1 <0>        -0.3622
     30 C24        -9.5907   -8.1159    3.6003 C.2       1 <0>         0.4946
     31 O3        -10.5883   -8.5752    4.1156 O.2       1 <0>        -0.4412
     32 N3         -9.0713   -6.8964    3.8227 N.am      1 <0>        -0.6504
     33 N4         -0.5497   -2.4718   -1.9849 N.pl3     1 <0>        -0.7358
     34 C25         0.0972   -1.3727   -2.5619 C.ar      1 <0>         0.1997
     35 C26         1.4852   -1.3431   -2.6382 C.ar      1 <0>        -0.1045
     36 C27         2.1359   -0.2643   -3.2058 C.ar      1 <0>        -0.1000
     37 C28         1.4094    0.8070   -3.7087 C.ar      1 <0>         0.1339
     38 C29         0.0081    0.7782   -3.6322 C.ar      1 <0>        -0.1868
     39 C30        -0.6455   -0.3149   -3.0633 C.ar      1 <0>        -0.0810
     40 C31        -0.4735    2.0343   -4.2373 C.2       1 <0>         0.3886
     41 O4         -1.6234    2.3992   -4.3683 O.2       1 <0>        -0.3728
     42 C32         0.7700    2.7615   -4.6551 C.2       1 <0>         0.4928
     43 O5          0.8188    3.8455   -5.1975 O.2       1 <0>        -0.4587
     44 N5          1.8205    1.9934   -4.3186 N.am      1 <0>        -0.6479
     45 H3         -0.9613    1.8849    0.0259 H         1 <0>         0.1163
     46 H4          1.1388    3.1630    0.0081 H         1 <0>         0.1187
     47 H5          3.3028    2.0064   -0.0198 H         1 <0>         0.1138
     48 H6         -0.9246   -0.5587    0.0082 H         1 <0>         0.1152
     49 H7          3.5346   -3.0459   -0.0490 H         1 <0>         0.1663
     50 H8          1.1742   -4.1414    0.4036 H         1 <0>         0.0774
     51 H9         -0.2127   -3.0396    0.5787 H         1 <0>         0.0842
     52 H10        -0.9944   -5.0354   -2.4727 H         1 <0>         0.0765
     53 H11        -0.0037   -5.7090   -1.1563 H         1 <0>         0.0824
     54 H12        -3.8486   -4.7946    0.9889 H         1 <0>         0.1467
     55 H13        -4.8943   -8.7670   -0.2439 H         1 <0>         0.1612
     56 H14        -1.5224   -6.9731   -1.8634 H         1 <0>         0.1591
     57 H15        -5.3170   -4.7689    2.0844 H         1 <0>         0.1443
     58 H16        -7.2669   -4.7089    3.5698 H         1 <0>         0.1434
     59 H17        -6.3437   -8.7397    0.8505 H         1 <0>         0.1453
     60 H18        -9.4505   -6.2442    4.4324 H         1 <0>         0.4277
     61 H19        -1.5182   -2.4936   -1.9356 H         1 <0>         0.4049
     62 H20         2.0601   -2.1708   -2.2499 H         1 <0>         0.1377
     63 H21         3.2145   -0.2542   -3.2583 H         1 <0>         0.1242
     64 H22        -1.7240   -0.3352   -3.0100 H         1 <0>         0.1319
     65 H23         2.7466    2.2332   -4.4789 H         1 <0>         0.4210
@<TRIPOS>BOND
     1    1    6 ar
     2    1    2 ar
     3    1   45 1
     4    2    3 ar
     5    2   46 1
     6    3    4 ar
     7    3   47 1
     8    4    9 1
     9    4    5 ar
    10    5    6 ar
    11    5    7 1
    12    6   48 1
    13    7    8 2
    14    7   11 1
    15    8    9 1
    16    8   49 1
    17    9   10 1
    18   11   12 1
    19   11   50 1
    20   11   51 1
    21   12   13 1
    22   12   14 1
    23   12   33 1
    24   14   15 1
    25   14   52 1
    26   14   53 1
    27   15   16 1
    28   16   21 ar
    29   16   17 ar
    30   17   18 ar
    31   17   54 1
    32   18   19 ar
    33   18   22 1
    34   19   20 ar
    35   19   55 1
    36   20   21 ar
    37   21   56 1
    38   22   27 ar
    39   22   23 ar
    40   23   24 ar
    41   23   57 1
    42   24   25 ar
    43   24   58 1
    44   25   32 1
    45   25   26 ar
    46   26   27 ar
    47   26   28 1
    48   27   59 1
    49   28   29 2
    50   28   30 1
    51   30   31 2
    52   30   32 am
    53   32   60 1
    54   33   34 1
    55   33   61 1
    56   34   39 ar
    57   34   35 ar
    58   35   36 ar
    59   35   62 1
    60   36   37 ar
    61   36   63 1
    62   37   44 1
    63   37   38 ar
    64   38   39 ar
    65   38   40 1
    66   39   64 1
    67   40   41 2
    68   40   42 1
    69   42   43 2
    70   42   44 am
    71   44   65 1
@<TRIPOS>MOLECULE
CHEMBL1081263
   50    53     0     0     0
SMALL
USER_CHARGES

@<TRIPOS>ATOM
      1 C1         -0.0167    1.3781    0.0096 C.ar      1 <0>        -0.1414
      2 C2          1.1709    2.0855    0.0021 C.ar      1 <0>        -0.0581
      3 C3          2.3773    1.4107   -0.0130 C.ar      1 <0>        -0.1628
      4 C4          2.3960    0.0285   -0.0201 C.ar      1 <0>        -0.0559
      5 C5          1.2085   -0.6789   -0.0117 C.ar      1 <0>        -0.1023
      6 C6          0.0021   -0.0041    0.0020 C.ar      1 <0>        -0.0986
      7 C7         -1.2926   -0.7753    0.0107 C.3       1 <0>        -0.0995
      8 C8         -1.7450   -1.0285   -1.4288 C.3       1 <0>         0.0245
      9 H1         -0.9463   -1.5264   -1.9784 H         1 <0>         0.1551
     10 C9         -2.9907   -1.9168   -1.4231 C.3       1 <0>         0.1135
     11 N1         -3.4936   -2.0615   -2.7914 N.pl3     1 <0>        -0.7055
     12 C10        -4.6203   -2.8258   -3.0371 C.2       1 <0>         0.2794
     13 N2         -5.3657   -3.4845   -2.1723 N.2       1 <0>        -0.5619
     14 C11        -6.4175   -4.1732   -2.5623 C.2       1 <0>         0.0901
     15 C12        -6.6938   -4.1687   -3.9043 C.2       1 <0>        -0.1784
     16 S1         -5.3728   -3.1318   -4.5110 S.3       1 <0>         0.1353
     17 C13        -7.7850   -4.8335   -4.6438 C.ar      1 <0>         0.0253
     18 C14        -8.7327   -5.6044   -3.9457 C.ar      1 <0>        -0.1090
     19 C15        -9.7457   -6.2267   -4.6012 C.ar      1 <0>        -0.0679
     20 C16        -9.8566   -6.1036   -5.9972 C.ar      1 <0>        -0.1140
     21 C17       -10.8872   -6.7285   -6.7155 C.ar      1 <0>         0.1520
     22 N3        -10.9560   -6.5885   -8.0192 N.ar      1 <0>        -0.4848
     23 C18       -10.0823   -5.8703   -8.7119 C.ar      1 <0>         0.0864
     24 C19        -9.0460   -5.2244   -8.1099 C.ar      1 <0>        -0.1592
     25 C20        -8.9059   -5.3276   -6.7123 C.ar      1 <0>        -0.0164
     26 C21        -7.8711   -4.6887   -6.0205 C.ar      1 <0>        -0.1041
     27 N4         -2.0599    0.2523   -2.0756 N.4       1 <0>        -0.6402
     28 C22         3.6720    2.1819   -0.0222 C.3       1 <0>         0.5037
     29 F1          4.0857    2.4144    1.2938 F         1 <0>        -0.1688
     30 F2          4.6506    1.4423   -0.6949 F         1 <0>        -0.1714
     31 F3          3.4816    3.4050   -0.6742 F         1 <0>        -0.1728
     32 H2         -0.9591    1.9053    0.0259 H         1 <0>         0.1371
     33 H3          1.1563    3.1654    0.0076 H         1 <0>         0.1471
     34 H4          3.3385   -0.4987   -0.0326 H         1 <0>         0.1479
     35 H5          1.2231   -1.7588   -0.0179 H         1 <0>         0.1451
     36 H6         -1.1443   -1.7285    0.5180 H         1 <0>         0.1327
     37 H7         -2.0551   -0.1993    0.5352 H         1 <0>         0.1104
     38 H8         -2.7351   -2.8985   -1.0242 H         1 <0>         0.1172
     39 H9         -3.7596   -1.4603   -0.7997 H         1 <0>         0.1001
     40 H10        -3.0366   -1.6214   -3.5252 H         1 <0>         0.4105
     41 H11        -7.0322   -4.7154   -1.8591 H         1 <0>         0.1819
     42 H12        -8.6529   -5.7028   -2.8731 H         1 <0>         0.1327
     43 H13       -10.4649   -6.8155   -4.0513 H         1 <0>         0.1429
     44 H14       -11.6232   -7.3246   -6.1965 H         1 <0>         0.1678
     45 H15       -10.1959   -5.7960   -9.7833 H         1 <0>         0.1573
     46 H16        -8.3452   -4.6448   -8.6925 H         1 <0>         0.1398
     47 H17        -7.1448   -4.0928   -6.5532 H         1 <0>         0.1296
     48 H18        -2.7994    0.7132   -1.5668 H         1 <0>         0.4378
     49 H19        -1.2384    0.8381   -2.0794 H         1 <0>         0.4380
     50 H20        -2.3583    0.0853   -3.0249 H         1 <0>         0.4321
@<TRIPOS>BOND
     1    1    6 ar
     2    1    2 ar
     3    1   32 1
     4    2    3 ar
     5    2   33 1
     6    3    4 ar
     7    3   28 1
     8    4    5 ar
     9    4   34 1
    10    5    6 ar
    11    5   35 1
    12    6    7 1
    13    7    8 1
    14    7   36 1
    15    7   37 1
    16    8    9 1
    17    8   10 1
    18    8   27 1
    19   10   11 1
    20   10   38 1
    21   10   39 1
    22   11   12 1
    23   11   40 1
    24   12   16 1
    25   12   13 2
    26   13   14 1
    27   14   15 2
    28   14   41 1
    29   15   16 1
    30   15   17 1
    31   17   26 ar
    32   17   18 ar
    33   18   19 ar
    34   18   42 1
    35   19   20 ar
    36   19   43 1
    37   20   25 ar
    38   20   21 ar
    39   21   22 ar
    40   21   44 1
    41   22   23 ar
    42   23   24 ar
    43   23   45 1
    44   24   25 ar
    45   24   46 1
    46   25   26 ar
    47   26   47 1
    48   27   48 1
    49   27   49 1
    50   27   50 1
    51   28   29 1
    52   28   30 1
    53   28   31 1
@<TRIPOS>MOLECULE
CHEMBL1081425
   50    53     0     0     0
SMALL
USER_CHARGES

@<TRIPOS>ATOM
      1 C1         -0.0167    1.3781    0.0096 C.ar      1 <0>        -0.1411
      2 C2          1.1709    2.0855    0.0021 C.ar      1 <0>        -0.0579
      3 C3          2.3773    1.4107   -0.0130 C.ar      1 <0>        -0.1621
      4 C4          2.3960    0.0285   -0.0201 C.ar      1 <0>        -0.0557
      5 C5          1.2085   -0.6789   -0.0117 C.ar      1 <0>        -0.1021
      6 C6          0.0021   -0.0041    0.0020 C.ar      1 <0>        -0.0996
      7 C7         -1.2926   -0.7753    0.0107 C.3       1 <0>        -0.1004
      8 C8         -1.7450   -1.0285   -1.4288 C.3       1 <0>         0.0277
      9 H1         -0.9463   -1.5264   -1.9784 H         1 <0>         0.1563
     10 C9         -2.9907   -1.9168   -1.4231 C.3       1 <0>         0.1005
     11 N1         -3.4936   -2.0615   -2.7914 N.pl3     1 <0>        -0.7155
     12 C10        -4.6286   -2.8314   -3.0389 C.2       1 <0>         0.0808
     13 C11        -5.2597   -3.1032   -4.2228 C.2       1 <0>        -0.0360
     14 N2         -6.3293   -3.8628   -4.2276 N.2       1 <0>        -0.4575
     15 C12        -6.8163   -4.3764   -3.1077 C.2       1 <0>         0.1337
     16 S1         -5.6602   -3.7450   -1.8989 S.3       1 <0>         0.0374
     17 C13        -7.9950   -5.2438   -2.9112 C.ar      1 <0>         0.0016
     18 C14        -8.3375   -5.6730   -1.6158 C.ar      1 <0>        -0.1082
     19 C15        -9.4165   -6.4704   -1.4071 C.ar      1 <0>        -0.0718
     20 C16       -10.2075   -6.8774   -2.4954 C.ar      1 <0>        -0.1047
     21 C17       -11.3315   -7.7006   -2.3265 C.ar      1 <0>         0.1480
     22 N3        -12.0448   -8.0583   -3.3690 N.ar      1 <0>        -0.4798
     23 C18       -11.7537   -7.6744   -4.6045 C.ar      1 <0>         0.0840
     24 C19       -10.6846   -6.8760   -4.8755 C.ar      1 <0>        -0.1494
     25 C20        -9.8713   -6.4503   -3.8075 C.ar      1 <0>        -0.0256
     26 C21        -8.7590   -5.6242   -4.0042 C.ar      1 <0>        -0.0536
     27 N4         -2.0599    0.2523   -2.0756 N.4       1 <0>        -0.6396
     28 C22         3.6720    2.1819   -0.0222 C.3       1 <0>         0.5036
     29 F1          4.0857    2.4144    1.2938 F         1 <0>        -0.1686
     30 F2          4.6506    1.4423   -0.6949 F         1 <0>        -0.1713
     31 F3          3.4816    3.4050   -0.6742 F         1 <0>        -0.1727
     32 H2         -0.9591    1.9053    0.0259 H         1 <0>         0.1371
     33 H3          1.1563    3.1654    0.0076 H         1 <0>         0.1474
     34 H4          3.3385   -0.4987   -0.0326 H         1 <0>         0.1482
     35 H5          1.2231   -1.7588   -0.0179 H         1 <0>         0.1450
     36 H6         -1.1443   -1.7285    0.5180 H         1 <0>         0.1325
     37 H7         -2.0551   -0.1993    0.5352 H         1 <0>         0.1104
     38 H8         -2.7351   -2.8985   -1.0242 H         1 <0>         0.1138
     39 H9         -3.7596   -1.4603   -0.7997 H         1 <0>         0.0966
     40 H10        -3.0366   -1.6214   -3.5252 H         1 <0>         0.4050
     41 H11        -4.8796   -2.6944   -5.1473 H         1 <0>         0.1658
     42 H12        -7.7335   -5.3640   -0.7756 H         1 <0>         0.1278
     43 H13        -9.6662   -6.7918   -0.4068 H         1 <0>         0.1440
     44 H14       -11.6094   -8.0400   -1.3395 H         1 <0>         0.1683
     45 H15       -12.3821   -8.0044   -5.4186 H         1 <0>         0.1589
     46 H16       -10.4646   -6.5753   -5.8892 H         1 <0>         0.1435
     47 H17        -8.4960   -5.2898   -4.9970 H         1 <0>         0.1457
     48 H18        -2.7994    0.7132   -1.5668 H         1 <0>         0.4375
     49 H19        -1.2384    0.8381   -2.0794 H         1 <0>         0.4385
     50 H20        -2.3583    0.0853   -3.0249 H         1 <0>         0.4339
@<TRIPOS>BOND
     1    1    6 ar
     2    1    2 ar
     3    1   32 1
     4    2    3 ar
     5    2   33 1
     6    3    4 ar
     7    3   28 1
     8    4    5 ar
     9    4   34 1
    10    5    6 ar
    11    5   35 1
    12    6    7 1
    13    7    8 1
    14    7   36 1
    15    7   37 1
    16    8    9 1
    17    8   10 1
    18    8   27 1
    19   10   11 1
    20   10   38 1
    21   10   39 1
    22   11   12 1
    23   11   40 1
    24   12   16 1
    25   12   13 2
    26   13   14 1
    27   13   41 1
    28   14   15 2
    29   15   16 1
    30   15   17 1
    31   17   26 ar
    32   17   18 ar
    33   18   19 ar
    34   18   42 1
    35   19   20 ar
    36   19   43 1
    37   20   25 ar
    38   20   21 ar
    39   21   22 ar
    40   21   44 1
    41   22   23 ar
    42   23   24 ar
    43   23   45 1
    44   24   25 ar
    45   24   46 1
    46   25   26 ar
    47   26   47 1
    48   27   48 1
    49   27   49 1
    50   27   50 1
    51   28   29 1
    52   28   30 1
    53   28   31 1
@<TRIPOS>MOLECULE
CHEMBL1081296
   49    52     0     0     0
SMALL
USER_CHARGES

@<TRIPOS>ATOM
      1 C1         -0.0167    1.3781    0.0096 C.ar      1 <0>        -0.1413
      2 C2          1.1709    2.0855    0.0021 C.ar      1 <0>        -0.0581
      3 C3          2.3773    1.4107   -0.0130 C.ar      1 <0>        -0.1628
      4 C4          2.3960    0.0285   -0.0201 C.ar      1 <0>        -0.0559
      5 C5          1.2085   -0.6789   -0.0117 C.ar      1 <0>        -0.1023
      6 C6          0.0021   -0.0041    0.0020 C.ar      1 <0>        -0.0988
      7 C7         -1.2926   -0.7753    0.0107 C.3       1 <0>        -0.0994
      8 C8         -1.7450   -1.0285   -1.4288 C.3       1 <0>         0.0243
      9 H1         -0.9463   -1.5264   -1.9784 H         1 <0>         0.1553
     10 C9         -2.9907   -1.9168   -1.4231 C.3       1 <0>         0.1130
     11 N1         -3.4936   -2.0615   -2.7914 N.pl3     1 <0>        -0.7045
     12 C10        -4.6200   -2.8256   -3.0370 C.2       1 <0>         0.2815
     13 N2         -5.3655   -3.4844   -2.1720 N.2       1 <0>        -0.5639
     14 C11        -6.4167   -4.1731   -2.5617 C.2       1 <0>         0.0989
     15 C12        -6.6931   -4.1689   -3.9043 C.2       1 <0>        -0.1885
     16 S1         -5.3724   -3.1315   -4.5110 S.3       1 <0>         0.1457
     17 C13        -7.7836   -4.8338   -4.6434 C.ar      1 <0>         0.0469
     18 C14        -8.7309   -5.6046   -3.9444 C.ar      1 <0>        -0.1106
     19 C15        -9.7435   -6.2260   -4.6019 C.ar      1 <0>        -0.0556
     20 C16        -9.8518   -6.1010   -5.9972 C.ar      1 <0>        -0.1700
     21 C17       -10.8819   -6.7246   -6.7203 C.ar      1 <0>         0.2060
     22 N3        -10.9186   -6.5611   -8.0284 N.ar      1 <0>        -0.5241
     23 C18       -10.0146   -5.8298   -8.6635 C.ar      1 <0>         0.3090
     24 N4         -9.0296   -5.2233   -8.0454 N.ar      1 <0>        -0.5098
     25 C19        -8.9026   -5.3257   -6.7149 C.ar      1 <0>         0.1672
     26 C20        -7.8690   -4.6886   -6.0206 C.ar      1 <0>        -0.0976
     27 N5         -2.0599    0.2523   -2.0756 N.4       1 <0>        -0.6403
     28 C21         3.6720    2.1819   -0.0222 C.3       1 <0>         0.5037
     29 F1          4.0857    2.4144    1.2938 F         1 <0>        -0.1688
     30 F2          4.6506    1.4423   -0.6949 F         1 <0>        -0.1714
     31 F3          3.4816    3.4050   -0.6742 F         1 <0>        -0.1728
     32 H2         -0.9591    1.9053    0.0259 H         1 <0>         0.1371
     33 H3          1.1563    3.1654    0.0076 H         1 <0>         0.1472
     34 H4          3.3385   -0.4987   -0.0326 H         1 <0>         0.1479
     35 H5          1.2231   -1.7588   -0.0179 H         1 <0>         0.1451
     36 H6         -1.1443   -1.7285    0.5180 H         1 <0>         0.1327
     37 H7         -2.0551   -0.1993    0.5352 H         1 <0>         0.1104
     38 H8         -2.7351   -2.8985   -1.0242 H         1 <0>         0.1176
     39 H9         -3.7596   -1.4603   -0.7997 H         1 <0>         0.1006
     40 H10        -3.0366   -1.6214   -3.5252 H         1 <0>         0.4111
     41 H11        -7.0314   -4.7153   -1.8584 H         1 <0>         0.1831
     42 H12        -8.6515   -5.7034   -2.8718 H         1 <0>         0.1380
     43 H13       -10.4637   -6.8153   -4.0537 H         1 <0>         0.1468
     44 H14       -11.6260   -7.3242   -6.2171 H         1 <0>         0.1802
     45 H15       -10.0918   -5.7291   -9.7360 H         1 <0>         0.2007
     46 H16        -7.1418   -4.0926   -6.5520 H         1 <0>         0.1383
     47 H17        -1.2384    0.8381   -2.0794 H         1 <0>         0.4382
     48 H18        -2.3583    0.0853   -3.0249 H         1 <0>         0.4322
     49 H19        -2.7994    0.7132   -1.5668 H         1 <0>         0.4378
@<TRIPOS>BOND
     1    1    6 ar
     2    1    2 ar
     3    1   32 1
     4    2    3 ar
     5    2   33 1
     6    3    4 ar
     7    3   28 1
     8    4    5 ar
     9    4   34 1
    10    5    6 ar
    11    5   35 1
    12    6    7 1
    13    7    8 1
    14    7   36 1
    15    7   37 1
    16    8    9 1
    17    8   10 1
    18    8   27 1
    19   10   11 1
    20   10   38 1
    21   10   39 1
    22   11   12 1
    23   11   40 1
    24   12   16 1
    25   12   13 2
    26   13   14 1
    27   14   15 2
    28   14   41 1
    29   15   16 1
    30   15   17 1
    31   17   26 ar
    32   17   18 ar
    33   18   19 ar
    34   18   42 1
    35   19   20 ar
    36   19   43 1
    37   20   25 ar
    38   20   21 ar
    39   21   22 ar
    40   21   44 1
    41   22   23 ar
    42   23   24 ar
    43   23   45 1
    44   24   25 ar
    45   25   26 ar
    46   26   46 1
    47   27   47 1
    48   27   48 1
    49   27   49 1
    50   28   29 1
    51   28   30 1
    52   28   31 1
@<TRIPOS>MOLECULE
CHEMBL377603
   73    78     0     0     0
SMALL
USER_CHARGES

@<TRIPOS>ATOM
      1 C1         -0.0187    1.5258    0.0104 C.3       1 <0>        -0.1464
      2 C2          0.0021   -0.0041    0.0020 C.3       1 <0>        -0.0298
      3 C3          0.7421   -0.5109    1.2415 C.3       1 <0>        -0.1539
      4 C4         -1.4333   -0.5336    0.0129 C.3       1 <0>        -0.0544
      5 C5         -2.1387   -0.0476    1.2528 C.2       1 <0>         0.0244
      6 C6         -2.0937   -0.6308    2.4678 C.2       1 <0>        -0.1941
      7 C7         -2.8887    0.1426    3.3365 C.2       1 <0>        -0.1999
      8 C8         -3.3894    1.1689    2.6192 C.2       1 <0>        -0.0164
      9 N1         -2.9277    1.0608    1.3409 N.pl3     1 <0>        -0.5568
     10 H1         -3.1294    1.6702    0.6137 H         1 <0>         0.4107
     11 C9          0.7182   -0.4975   -1.2568 C.3       1 <0>        -0.0764
     12 C10         2.1085    0.0900   -1.3399 C.ar      1 <0>        -0.1233
     13 C11         3.2103   -0.0015   -0.5234 C.ar      1 <0>        -0.0448
     14 C12         4.3853    0.6677   -0.8662 C.ar      1 <0>        -0.0829
     15 C13         4.4299    1.4243   -2.0363 C.ar      1 <0>        -0.0644
     16 C14         3.3219    1.5109   -2.8489 C.ar      1 <0>        -0.1374
     17 C15         2.1456    0.8426   -2.5084 C.ar      1 <0>         0.1647
     18 N2          0.9141    0.7806   -3.1603 N.am      1 <0>        -0.6607
     19 C16         0.0252    0.0207   -2.4989 C.2       1 <0>         0.5338
     20 O1         -1.1179   -0.2073   -2.8341 O.2       1 <0>        -0.4841
     21 C17         5.5796    0.5754    0.0091 C.ar      1 <0>        -0.0339
     22 C18         6.7577    1.2477   -0.3253 C.ar      1 <0>        -0.0987
     23 C19         7.8474    1.1289    0.5274 C.ar      1 <0>         0.0700
     24 C20         7.7292    0.3529    1.6726 C.ar      1 <0>         0.0197
     25 N3          6.6018   -0.2686    1.9572 N.ar      1 <0>        -0.4367
     26 C21         5.5417   -0.1787    1.1803 C.ar      1 <0>         0.0847
     27 O2          9.0152    1.7640    0.2442 O.3       1 <0>        -0.3229
     28 C22        10.0889    1.5916    1.1712 C.3       1 <0>         0.0263
     29 C23        11.3108    2.3753    0.6879 C.3       1 <0>         0.0434
     30 H2         11.5603    2.0690   -0.3280 H         1 <0>         0.1528
     31 C24        12.4968    2.0917    1.6119 C.3       1 <0>        -0.0556
     32 C25        13.7302    2.7648    1.0672 C.2       1 <0>        -0.2376
     33 C26        14.6620    2.2067    0.2783 C.2       1 <0>         0.1040
     34 N4         15.6349    3.1231   -0.0149 N.pl3     1 <0>        -0.5845
     35 H3         16.4125    2.9523   -0.5689 H         1 <0>         0.4265
     36 C27        15.3455    4.3239    0.5936 C.ar      1 <0>         0.0987
     37 C28        14.1364    4.1540    1.2929 C.ar      1 <0>        -0.1171
     38 C29        13.5898    5.2207    2.0085 C.ar      1 <0>        -0.1141
     39 C30        14.2311    6.4274    2.0230 C.ar      1 <0>        -0.1190
     40 C31        15.4218    6.6013    1.3314 C.ar      1 <0>        -0.0932
     41 C32        15.9837    5.5593    0.6263 C.ar      1 <0>        -0.1109
     42 N5         11.0090    3.8129    0.7057 N.4       1 <0>        -0.6363
     43 H4          1.0039    1.9031    0.0027 H         1 <0>         0.0596
     44 H5         -0.5459    1.8868   -0.8726 H         1 <0>         0.0474
     45 H6         -0.5289    1.8773    0.9072 H         1 <0>         0.0668
     46 H7          0.2319   -0.1594    2.1383 H         1 <0>         0.0776
     47 H8          0.7568   -1.6008    1.2356 H         1 <0>         0.0619
     48 H9          1.7647   -0.1336    1.2338 H         1 <0>         0.0594
     49 H10        -1.9605   -0.1726   -0.8702 H         1 <0>         0.0862
     50 H11        -1.4185   -1.6235    0.0069 H         1 <0>         0.0882
     51 H12        -1.5486   -1.5263    2.7273 H         1 <0>         0.1332
     52 H13        -3.0652   -0.0511    4.3843 H         1 <0>         0.1337
     53 H14        -4.0402    1.9451    2.9938 H         1 <0>         0.1616
     54 H15         0.7602   -1.5866   -1.2691 H         1 <0>         0.1307
     55 H16         3.1664   -0.5896    0.3814 H         1 <0>         0.1407
     56 H17         5.3370    1.9447   -2.3062 H         1 <0>         0.1328
     57 H18         3.3634    2.0990   -3.7537 H         1 <0>         0.1335
     58 H19         0.7213    1.2346   -3.9955 H         1 <0>         0.4164
     59 H20         6.8195    1.8439   -1.2236 H         1 <0>         0.1477
     60 H21         8.5731    0.2566    2.3396 H         1 <0>         0.1576
     61 H22         4.6351   -0.6992    1.4514 H         1 <0>         0.1663
     62 H23         9.7854    1.9599    2.1512 H         1 <0>         0.0921
     63 H24        10.3408    0.5335    1.2427 H         1 <0>         0.1141
     64 H25        12.2819    2.4783    2.6081 H         1 <0>         0.0999
     65 H26        12.6646    1.0161    1.6680 H         1 <0>         0.1219
     66 H27        14.6463    1.1854   -0.0726 H         1 <0>         0.1791
     67 H28        12.6632    5.0929    2.5484 H         1 <0>         0.1149
     68 H29        13.8078    7.2524    2.5767 H         1 <0>         0.1312
     69 H30        15.9165    7.5611    1.3518 H         1 <0>         0.1352
     70 H31        16.9100    5.7049    0.0904 H         1 <0>         0.1294
     71 H32        10.2269    3.9999    0.0964 H         1 <0>         0.4390
     72 H33        10.7780    4.0964    1.6461 H         1 <0>         0.4300
     73 H34        11.8148    4.3297    0.3870 H         1 <0>         0.4381
@<TRIPOS>BOND
     1    1    2 1
     2    1   43 1
     3    1   44 1
     4    1   45 1
     5    2    3 1
     6    2    4 1
     7    2   11 1
     8    3   46 1
     9    3   47 1
    10    3   48 1
    11    4    5 1
    12    4   49 1
    13    4   50 1
    14    5    9 1
    15    5    6 2
    16    6    7 1
    17    6   51 1
    18    7    8 2
    19    7   52 1
    20    8    9 1
    21    8   53 1
    22    9   10 1
    23   11   19 1
    24   11   12 1
    25   11   54 1
    26   12   17 ar
    27   12   13 ar
    28   13   14 ar
    29   13   55 1
    30   14   15 ar
    31   14   21 1
    32   15   16 ar
    33   15   56 1
    34   16   17 ar
    35   16   57 1
    36   17   18 1
    37   18   19 am
    38   18   58 1
    39   19   20 2
    40   21   26 ar
    41   21   22 ar
    42   22   23 ar
    43   22   59 1
    44   23   24 ar
    45   23   27 1
    46   24   25 ar
    47   24   60 1
    48   25   26 ar
    49   26   61 1
    50   27   28 1
    51   28   29 1
    52   28   62 1
    53   28   63 1
    54   29   30 1
    55   29   31 1
    56   29   42 1
    57   31   32 1
    58   31   64 1
    59   31   65 1
    60   32   37 1
    61   32   33 2
    62   33   34 1
    63   33   66 1
    64   34   35 1
    65   34   36 1
    66   36   41 ar
    67   36   37 ar
    68   37   38 ar
    69   38   39 ar
    70   38   67 1
    71   39   40 ar
    72   39   68 1
    73   40   41 ar
    74   40   69 1
    75   41   70 1
    76   42   71 1
    77   42   72 1
    78   42   73 1
@<TRIPOS>MOLECULE
CHEMBL377603
   73    78     0     0     0
SMALL
USER_CHARGES

@<TRIPOS>ATOM
      1 C1         -0.0187    1.5258    0.0104 C.3       1 <0>        -0.1515
      2 C2          0.0021   -0.0041    0.0020 C.3       1 <0>        -0.0304
      3 C3          0.7421   -0.5109    1.2415 C.3       1 <0>        -0.1491
      4 C4         -1.4333   -0.5336    0.0129 C.3       1 <0>        -0.0530
      5 C5         -2.1387   -0.0476    1.2528 C.2       1 <0>         0.0240
      6 C6         -2.0937   -0.6308    2.4678 C.2       1 <0>        -0.1929
      7 C7         -2.8887    0.1426    3.3365 C.2       1 <0>        -0.1998
      8 C8         -3.3894    1.1689    2.6192 C.2       1 <0>        -0.0158
      9 N1         -2.9277    1.0608    1.3409 N.pl3     1 <0>        -0.5570
     10 H1         -3.1294    1.6702    0.6137 H         1 <0>         0.4108
     11 C9          0.7182   -0.4975   -1.2568 C.3       1 <0>        -0.0760
     12 C10         2.1673   -0.0674   -1.2448 C.ar      1 <0>        -0.1241
     13 C11         2.7744    1.1656   -1.2297 C.ar      1 <0>        -0.0454
     14 C12         4.1666    1.2533   -1.2218 C.ar      1 <0>        -0.0839
     15 C13         4.9296    0.0866   -1.2293 C.ar      1 <0>        -0.0637
     16 C14         4.3138   -1.1447   -1.2445 C.ar      1 <0>        -0.1372
     17 C15         2.9217   -1.2352   -1.2524 C.ar      1 <0>         0.1672
     18 N2          2.0834   -2.3499   -1.2680 N.am      1 <0>        -0.6603
     19 C16         0.7837   -2.0098   -1.2715 C.2       1 <0>         0.5346
     20 O1         -0.1601   -2.7716   -1.2841 O.2       1 <0>        -0.4813
     21 C17         4.8310    2.5797   -1.2059 C.ar      1 <0>        -0.0329
     22 C18         6.2247    2.6749   -1.2038 C.ar      1 <0>        -0.0988
     23 C19         6.7976    3.9399   -1.1887 C.ar      1 <0>         0.0706
     24 C20         5.9724    5.0564   -1.1763 C.ar      1 <0>         0.0191
     25 N3          4.6601    4.9297   -1.1784 N.ar      1 <0>        -0.4372
     26 C21         4.0744    3.7499   -1.1988 C.ar      1 <0>         0.0837
     27 O2          8.1492    4.0832   -1.1855 O.3       1 <0>        -0.3226
     28 C22         8.6600    5.4177   -1.1697 C.3       1 <0>         0.0263
     29 C23        10.1895    5.3783   -1.1684 C.3       1 <0>         0.0434
     30 H2         10.5366    4.7701   -0.3331 H         1 <0>         0.1530
     31 C24        10.7362    6.8001   -1.0258 C.3       1 <0>        -0.0555
     32 C25        12.2373    6.7510   -0.9012 C.2       1 <0>        -0.2377
     33 C26        12.9438    6.7408    0.2401 C.2       1 <0>         0.1041
     34 N4         14.2823    6.6924   -0.0401 N.pl3     1 <0>        -0.5845
     35 H3         14.9902    6.6764    0.6229 H         1 <0>         0.4266
     36 C27        14.4746    6.6697   -1.4033 C.ar      1 <0>         0.0988
     37 C28        13.2018    6.6990   -2.0025 C.ar      1 <0>        -0.1171
     38 C29        13.0862    6.6792   -3.3935 C.ar      1 <0>        -0.1141
     39 C30        14.2115    6.6278   -4.1671 C.ar      1 <0>        -0.1190
     40 C31        15.4691    6.5945   -3.5809 C.ar      1 <0>        -0.0932
     41 C32        15.6065    6.6226   -2.2101 C.ar      1 <0>        -0.1109
     42 N5         10.6653    4.7949   -2.4299 N.4       1 <0>        -0.6363
     43 H4          1.0039    1.9031    0.0027 H         1 <0>         0.0638
     44 H5         -0.5459    1.8868   -0.8726 H         1 <0>         0.0578
     45 H6         -0.5289    1.8773    0.9072 H         1 <0>         0.0676
     46 H7          0.2319   -0.1594    2.1383 H         1 <0>         0.0771
     47 H8          0.7568   -1.6008    1.2356 H         1 <0>         0.0512
     48 H9          1.7647   -0.1336    1.2338 H         1 <0>         0.0559
     49 H10        -1.9605   -0.1726   -0.8702 H         1 <0>         0.0710
     50 H11        -1.4185   -1.6235    0.0069 H         1 <0>         0.1022
     51 H12        -1.5486   -1.5263    2.7273 H         1 <0>         0.1309
     52 H13        -3.0652   -0.0511    4.3843 H         1 <0>         0.1335
     53 H14        -4.0402    1.9451    2.9938 H         1 <0>         0.1623
     54 H15         0.2154   -0.1282   -2.1506 H         1 <0>         0.1279
     55 H16         2.1752    2.0642   -1.2242 H         1 <0>         0.1387
     56 H17         6.0078    0.1488   -1.2236 H         1 <0>         0.1329
     57 H18         4.9111   -2.0445   -1.2506 H         1 <0>         0.1340
     58 H19         2.4024   -3.2659   -1.2757 H         1 <0>         0.4170
     59 H20         6.8407    1.7878   -1.2132 H         1 <0>         0.1481
     60 H21         6.4119    6.0429   -1.1646 H         1 <0>         0.1576
     61 H22         2.9961    3.6888   -1.2048 H         1 <0>         0.1652
     62 H23         8.3110    5.9509   -2.0540 H         1 <0>         0.0920
     63 H24         8.3091    5.9305   -0.2742 H         1 <0>         0.1139
     64 H25        10.4635    7.3841   -1.9049 H         1 <0>         0.0998
     65 H26        10.3127    7.2646   -0.1354 H         1 <0>         0.1218
     66 H27        12.5188    6.7672    1.2326 H         1 <0>         0.1791
     67 H28        12.1108    6.7042   -3.8566 H         1 <0>         0.1148
     68 H29        14.1216    6.6125   -5.2433 H         1 <0>         0.1312
     69 H30        16.3491    6.5532   -4.2056 H         1 <0>         0.1353
     70 H31        16.5895    6.5951   -1.7635 H         1 <0>         0.1294
     71 H32        10.3048    3.8572   -2.5239 H         1 <0>         0.4391
     72 H33        10.3440    5.3579   -3.2031 H         1 <0>         0.4299
     73 H34        11.6740    4.7689   -2.4291 H         1 <0>         0.4382
@<TRIPOS>BOND
     1    1    2 1
     2    1   43 1
     3    1   44 1
     4    1   45 1
     5    2    3 1
     6    2    4 1
     7    2   11 1
     8    3   46 1
     9    3   47 1
    10    3   48 1
    11    4    5 1
    12    4   49 1
    13    4   50 1
    14    5    9 1
    15    5    6 2
    16    6    7 1
    17    6   51 1
    18    7    8 2
    19    7   52 1
    20    8    9 1
    21    8   53 1
    22    9   10 1
    23   11   19 1
    24   11   12 1
    25   11   54 1
    26   12   17 ar
    27   12   13 ar
    28   13   14 ar
    29   13   55 1
    30   14   15 ar
    31   14   21 1
    32   15   16 ar
    33   15   56 1
    34   16   17 ar
    35   16   57 1
    36   17   18 1
    37   18   19 am
    38   18   58 1
    39   19   20 2
    40   21   26 ar
    41   21   22 ar
    42   22   23 ar
    43   22   59 1
    44   23   24 ar
    45   23   27 1
    46   24   25 ar
    47   24   60 1
    48   25   26 ar
    49   26   61 1
    50   27   28 1
    51   28   29 1
    52   28   62 1
    53   28   63 1
    54   29   30 1
    55   29   31 1
    56   29   42 1
    57   31   32 1
    58   31   64 1
    59   31   65 1
    60   32   37 1
    61   32   33 2
    62   33   34 1
    63   33   66 1
    64   34   35 1
    65   34   36 1
    66   36   41 ar
    67   36   37 ar
    68   37   38 ar
    69   38   39 ar
    70   38   67 1
    71   39   40 ar
    72   39   68 1
    73   40   41 ar
    74   40   69 1
    75   41   70 1
    76   42   71 1
    77   42   72 1
    78   42   73 1
@<TRIPOS>MOLECULE
CHEMBL445180
   47    50     0     0     0
SMALL
USER_CHARGES

@<TRIPOS>ATOM
      1 C1         -0.0187    1.5258    0.0104 C.3       1 <0>        -0.1646
      2 C2          0.0021   -0.0041    0.0020 C.3       1 <0>         0.0995
      3 N1         -1.3723   -0.5112    0.0124 N.pl3     1 <0>        -0.4459
      4 C3         -2.1310   -0.7950    1.1244 C.ar      1 <0>         0.0776
      5 C4         -1.9271   -0.7242    2.5032 C.ar      1 <0>         0.0811
      6 C5         -2.9505   -1.1045    3.3520 C.ar      1 <0>         0.0292
      7 N2         -4.1104   -1.5312    2.8826 N.ar      1 <0>        -0.4401
      8 C6         -4.3600   -1.6191    1.5852 C.ar      1 <0>         0.2686
      9 C7         -3.3737   -1.2518    0.6484 C.ar      1 <0>         0.0473
     10 N3         -3.3196   -1.2270   -0.6953 N.2       1 <0>        -0.4403
     11 C8         -2.1472   -0.7867   -1.0834 C.2       1 <0>         0.3382
     12 C9         -1.7238   -0.6174   -2.4907 C.2       1 <0>         0.1319
     13 C10        -2.5424   -0.9019   -3.6760 C.2       1 <0>         0.3638
     14 N4         -1.8340   -0.6322   -4.7376 N.2       1 <0>        -0.3425
     15 O1         -0.5634   -0.1747   -4.3102 O.3       1 <0>         0.0490
     16 N5         -0.5574   -0.1828   -2.8936 N.2       1 <0>        -0.2492
     17 N6         -3.8473   -1.3769   -3.6682 N.pl3     1 <0>        -0.8010
     18 C11        -5.6786   -2.1049    1.1177 C.2       1 <0>        -0.1571
     19 C12        -6.5204   -3.1287    1.7487 C.2       1 <0>        -0.1809
     20 C13        -7.6145   -3.2364    0.9769 C.2       1 <0>        -0.0334
     21 O2         -7.5108   -2.3804   -0.0510 O.3       1 <0>        -0.1739
     22 C14        -6.3633   -1.6909    0.0181 C.2       1 <0>         0.0225
     23 O3         -0.7402   -0.2886    3.0043 O.3       1 <0>        -0.3104
     24 C15        -0.6130   -0.2463    4.4270 C.3       1 <0>         0.0582
     25 C16         0.7798    0.2657    4.7995 C.3       1 <0>        -0.1543
     26 C17         0.9160    0.3110    6.3227 C.3       1 <0>        -0.0047
     27 N7          2.2534    0.8026    6.6804 N.4       1 <0>        -0.6359
     28 H1          1.0039    1.9031    0.0027 H         1 <0>         0.0849
     29 H2         -0.5459    1.8868   -0.8726 H         1 <0>         0.0653
     30 H3         -0.5289    1.8773    0.9072 H         1 <0>         0.0622
     31 H4          0.5123   -0.3556   -0.8948 H         1 <0>         0.1088
     32 H5          0.5293   -0.3651    0.8851 H         1 <0>         0.1014
     33 H6         -2.7990   -1.0520    4.4201 H         1 <0>         0.1673
     34 H7         -4.2956   -1.5495   -2.8254 H         1 <0>         0.4292
     35 H8         -4.3106   -1.5360   -4.5054 H         1 <0>         0.4216
     36 H9         -6.3038   -3.6831    2.6500 H         1 <0>         0.1556
     37 H10        -8.4438   -3.9049    1.1548 H         1 <0>         0.2081
     38 H11        -6.0368   -0.9362   -0.6821 H         1 <0>         0.2077
     39 H12        -1.3683    0.4227    4.8396 H         1 <0>         0.0787
     40 H13        -0.7530   -1.2476    4.8343 H         1 <0>         0.0786
     41 H14         1.5351   -0.4032    4.3869 H         1 <0>         0.1004
     42 H15         0.9198    1.2670    4.3922 H         1 <0>         0.1006
     43 H16         0.1607    0.9799    6.7353 H         1 <0>         0.1396
     44 H17         0.7760   -0.6903    6.7300 H         1 <0>         0.1396
     45 H18         2.9525    0.1834    6.2985 H         1 <0>         0.4375
     46 H19         2.3829    1.7295    6.3034 H         1 <0>         0.4374
     47 H20         2.3432    0.8325    7.6849 H         1 <0>         0.4428
@<TRIPOS>BOND
     1    1    2 1
     2    1   28 1
     3    1   29 1
     4    1   30 1
     5    2    3 1
     6    2   31 1
     7    2   32 1
     8    3   11 1
     9    3    4 1
    10    4    9 ar
    11    4    5 ar
    12    5    6 ar
    13    5   23 1
    14    6    7 ar
    15    6   33 1
    16    7    8 ar
    17    8    9 ar
    18    8   18 1
    19    9   10 1
    20   10   11 2
    21   11   12 1
    22   12   16 2
    23   12   13 1
    24   13   14 2
    25   13   17 1
    26   14   15 1
    27   15   16 1
    28   17   34 1
    29   17   35 1
    30   18   22 2
    31   18   19 1
    32   19   20 2
    33   19   36 1
    34   20   21 1
    35   20   37 1
    36   21   22 1
    37   22   38 1
    38   23   24 1
    39   24   25 1
    40   24   39 1
    41   24   40 1
    42   25   26 1
    43   25   41 1
    44   25   42 1
    45   26   27 1
    46   26   43 1
    47   26   44 1
    48   27   45 1
    49   27   46 1
    50   27   47 1
@<TRIPOS>MOLECULE
CHEMBL359864
   70    76     0     0     0
SMALL
USER_CHARGES

@<TRIPOS>ATOM
      1 C1         -0.0167    1.3791    0.0096 C.ar      1 <0>        -0.1115
      2 C2          1.1686    2.0924    0.0021 C.ar      1 <0>        -0.1123
      3 C3          2.3774    1.4269   -0.0135 C.ar      1 <0>        -0.1046
      4 C4          2.4026    0.0330   -0.0212 C.ar      1 <0>        -0.0471
      5 C5          1.2049   -0.6804   -0.0131 C.ar      1 <0>        -0.1001
      6 C6          0.0021   -0.0041    0.0020 C.ar      1 <0>        -0.1223
      7 C7          3.6978   -0.6877   -0.0384 C.ar      1 <0>        -0.0937
      8 C8          4.6746   -0.3467   -0.9592 C.ar      1 <0>        -0.0370
      9 C9          5.8865   -1.0604   -0.9351 C.ar      1 <0>        -0.0933
     10 C10         6.9202   -0.7666   -1.8399 C.ar      1 <0>        -0.0975
     11 C11         8.0813   -1.4761   -1.7897 C.ar      1 <0>        -0.1048
     12 C12         8.2587   -2.4912   -0.8517 C.ar      1 <0>        -0.0919
     13 C13         7.2787   -2.8031    0.0396 C.ar      1 <0>        -0.0933
     14 C14         6.0646   -2.0931    0.0207 C.ar      1 <0>         0.1317
     15 N1          5.0904   -2.3829    0.8875 N.ar      1 <0>        -0.4542
     16 C15         3.9489   -1.7250    0.8886 C.ar      1 <0>         0.1886
     17 C16         2.9051   -2.0836    1.8771 C.ar      1 <0>        -0.0056
     18 C17         2.0782   -1.0960    2.4114 C.ar      1 <0>        -0.0837
     19 C18         1.1075   -1.4362    3.3313 C.ar      1 <0>        -0.1002
     20 C19         0.9539   -2.7539    3.7236 C.ar      1 <0>        -0.1539
     21 C20         1.7713   -3.7380    3.1970 C.ar      1 <0>        -0.0954
     22 C21         2.7420   -3.4109    2.2724 C.ar      1 <0>        -0.0773
     23 C22        -0.1077   -3.1187    4.7290 C.3       1 <0>         0.0442
     24 N2         -1.3580   -3.4380    4.0269 N.4       1 <0>        -0.3850
     25 C23        -1.8542   -2.2372    3.3440 C.3       1 <0>        -0.0068
     26 C24        -3.1124   -2.5836    2.5449 C.3       1 <0>        -0.1646
     27 C25        -4.1876   -3.1111    3.4993 C.3       1 <0>         0.1610
     28 C26        -3.6327   -4.3185    4.2605 C.3       1 <0>        -0.1668
     29 C27        -2.3553   -3.9079    4.9960 C.3       1 <0>         0.0010
     30 N3         -5.3680   -3.5159    2.7319 N.am      1 <0>        -0.5373
     31 C28        -6.6489   -2.9854    2.8660 C.ar      1 <0>         0.0797
     32 C29        -7.1911   -2.0020    3.6794 C.ar      1 <0>        -0.1044
     33 C30        -8.5323   -1.6888    3.5784 C.ar      1 <0>        -0.1029
     34 C31        -9.3377   -2.3527    2.6689 C.ar      1 <0>        -0.0991
     35 C32        -8.8068   -3.3339    1.8549 C.ar      1 <0>        -0.1001
     36 C33        -7.4611   -3.6548    1.9485 C.ar      1 <0>         0.0916
     37 N4         -6.6485   -4.5712    1.2852 N.am      1 <0>        -0.6395
     38 C34        -5.3983   -4.4602    1.7726 C.2       1 <0>         0.6856
     39 O1         -4.4418   -5.1162    1.4045 O.2       1 <0>        -0.5575
     40 H1         -0.9603    1.9042    0.0260 H         1 <0>         0.1253
     41 H2          1.1478    3.1722    0.0082 H         1 <0>         0.1293
     42 H3          3.3021    1.9848   -0.0200 H         1 <0>         0.1274
     43 H4          1.2183   -1.7603   -0.0194 H         1 <0>         0.1196
     44 H5         -0.9264   -0.5557    0.0079 H         1 <0>         0.1211
     45 H6          4.5103    0.4444   -1.6758 H         1 <0>         0.1468
     46 H7          6.7944    0.0176   -2.5717 H         1 <0>         0.1354
     47 H8          8.8750   -1.2493   -2.4862 H         1 <0>         0.1347
     48 H9          9.1888   -3.0397   -0.8321 H         1 <0>         0.1365
     49 H10         7.4328   -3.5934    0.7594 H         1 <0>         0.1390
     50 H11         2.1974   -0.0670    2.1061 H         1 <0>         0.1423
     51 H12         0.4667   -0.6722    3.7461 H         1 <0>         0.1336
     52 H13         1.6466   -4.7650    3.5071 H         1 <0>         0.1348
     53 H14         3.3765   -4.1806    1.8587 H         1 <0>         0.1411
     54 H15         0.2182   -3.9860    5.3032 H         1 <0>         0.1393
     55 H16        -0.2739   -2.2783    5.4030 H         1 <0>         0.1373
     56 H17        -2.0928   -1.4720    4.0827 H         1 <0>         0.1325
     57 H18        -1.0867   -1.8612    2.6675 H         1 <0>         0.1393
     58 H19        -3.4803   -1.6904    2.0400 H         1 <0>         0.1166
     59 H20        -2.8749   -3.3487    1.8056 H         1 <0>         0.1068
     60 H21        -4.4622   -2.3289    4.2070 H         1 <0>         0.1149
     61 H22        -4.3726   -4.6654    4.9819 H         1 <0>         0.1179
     62 H23        -3.4061   -5.1195    3.5568 H         1 <0>         0.1074
     63 H24        -1.9577   -4.7652    5.5391 H         1 <0>         0.1385
     64 H25        -2.5831   -3.1070    5.6995 H         1 <0>         0.1333
     65 H26        -6.5660   -1.4825    4.3906 H         1 <0>         0.1289
     66 H27        -8.9548   -0.9228    4.2119 H         1 <0>         0.1386
     67 H28       -10.3858   -2.1025    2.5959 H         1 <0>         0.1399
     68 H29        -9.4383   -3.8502    1.1471 H         1 <0>         0.1366
     69 H30        -1.1847   -4.1623    3.3462 H         1 <0>         0.4261
     70 H31        -6.9338   -5.1823    0.5880 H         1 <0>         0.4396
@<TRIPOS>BOND
     1    1    6 ar
     2    1    2 ar
     3    1   40 1
     4    2    3 ar
     5    2   41 1
     6    3    4 ar
     7    3   42 1
     8    4    5 ar
     9    4    7 1
    10    5    6 ar
    11    5   43 1
    12    6   44 1
    13    7   16 ar
    14    7    8 ar
    15    8    9 ar
    16    8   45 1
    17    9   14 ar
    18    9   10 ar
    19   10   11 ar
    20   10   46 1
    21   11   12 ar
    22   11   47 1
    23   12   13 ar
    24   12   48 1
    25   13   14 ar
    26   13   49 1
    27   14   15 ar
    28   15   16 ar
    29   16   17 1
    30   17   22 ar
    31   17   18 ar
    32   18   19 ar
    33   18   50 1
    34   19   20 ar
    35   19   51 1
    36   20   21 ar
    37   20   23 1
    38   21   22 ar
    39   21   52 1
    40   22   53 1
    41   23   24 1
    42   23   54 1
    43   23   55 1
    44   24   29 1
    45   24   25 1
    46   24   69 1
    47   25   26 1
    48   25   56 1
    49   25   57 1
    50   26   27 1
    51   26   58 1
    52   26   59 1
    53   27   28 1
    54   27   30 1
    55   27   60 1
    56   28   29 1
    57   28   61 1
    58   28   62 1
    59   29   63 1
    60   29   64 1
    61   30   38 am
    62   30   31 1
    63   31   36 ar
    64   31   32 ar
    65   32   33 ar
    66   32   65 1
    67   33   34 ar
    68   33   66 1
    69   34   35 ar
    70   34   67 1
    71   35   36 ar
    72   35   68 1
    73   36   37 1
    74   37   38 am
    75   37   70 1
    76   38   39 2
@<TRIPOS>MOLECULE
CHEMBL180231
   72    79     0     0     0
SMALL
USER_CHARGES

@<TRIPOS>ATOM
      1 C1         -0.3284    0.5410   -0.9212 C.ar      1 <0>        -0.0995
      2 C2          0.7317    1.4289   -0.8800 C.ar      1 <0>        -0.1176
      3 C3          2.0149    0.9665   -0.6714 C.ar      1 <0>        -0.0733
      4 C4          2.2419   -0.3991   -0.5014 C.ar      1 <0>        -0.0537
      5 C5          1.1690   -1.2892   -0.5434 C.ar      1 <0>        -0.0888
      6 C6         -0.1096   -0.8147   -0.7533 C.ar      1 <0>        -0.1265
      7 C7          3.6170   -0.9021   -0.2775 C.ar      1 <0>         0.1870
      8 C8          3.8657   -1.8962    0.7642 C.ar      1 <0>         0.1219
      9 N1          5.0854   -2.3521    0.9742 N.ar      1 <0>        -0.3873
     10 C9          6.1022   -1.9012    0.2274 C.ar      1 <0>         0.0273
     11 C10         7.4038   -2.3694    0.4303 C.ar      1 <0>         0.0223
     12 C11         8.4390   -1.8843   -0.3594 C.ar      1 <0>        -0.1504
     13 C12         9.8757   -2.1623   -0.4004 C.2       1 <0>         0.0872
     14 N2         10.3976   -1.4299   -1.3396 N.2       1 <0>        -0.2215
     15 N3          9.4113   -0.6563   -1.9577 N.pl3     1 <0>        -0.5165
     16 H1          9.5596   -0.0323   -2.6853 H         1 <0>         0.4480
     17 C13         8.1957   -0.9213   -1.3683 C.ar      1 <0>         0.1613
     18 C14         6.9209   -0.4389   -1.5935 C.ar      1 <0>        -0.1172
     19 C15         5.8527   -0.9043   -0.8178 C.ar      1 <0>         0.1248
     20 N4          4.6084   -0.4537   -1.0235 N.ar      1 <0>        -0.4213
     21 C16         2.7412   -2.3946    1.5897 C.ar      1 <0>         0.0039
     22 C17         1.8058   -1.5012    2.1112 C.ar      1 <0>        -0.0807
     23 C18         0.7605   -1.9714    2.8794 C.ar      1 <0>        -0.0955
     24 C19         0.6397   -3.3260    3.1332 C.ar      1 <0>        -0.1535
     25 C20         1.5647   -4.2171    2.6192 C.ar      1 <0>        -0.0908
     26 C21         2.6105   -3.7596    1.8439 C.ar      1 <0>        -0.0803
     27 C22        -0.5040   -3.8330    3.9735 C.3       1 <0>         0.0438
     28 N5         -1.6490   -4.1422    3.1067 N.4       1 <0>        -0.3852
     29 C23        -2.1343   -2.9067    2.4802 C.3       1 <0>        -0.0074
     30 C24        -3.2749   -3.2342    1.5141 C.3       1 <0>        -0.1649
     31 C25        -4.4171   -3.8987    2.2880 C.3       1 <0>         0.1609
     32 C26        -3.8819   -5.1455    2.9980 C.3       1 <0>        -0.1670
     33 C27        -2.7188   -4.7473    3.9091 C.3       1 <0>         0.0011
     34 N6         -5.4807   -4.2836    1.3570 N.am      1 <0>        -0.5372
     35 C28        -6.7966   -3.8282    1.3893 C.ar      1 <0>         0.0797
     36 C29        -7.4802   -2.9522    2.2188 C.ar      1 <0>        -0.1043
     37 C30        -8.8177   -2.6934    1.9923 C.ar      1 <0>        -0.1029
     38 C31        -9.4789   -3.3052    0.9409 C.ar      1 <0>        -0.0991
     39 C32        -8.8065   -4.1795    0.1098 C.ar      1 <0>        -0.1001
     40 C33        -7.4633   -4.4449    0.3287 C.ar      1 <0>         0.0915
     41 N7         -6.5318   -5.2559   -0.3152 N.am      1 <0>        -0.6395
     42 H2         -6.7032   -5.8110   -1.0919 H         1 <0>         0.4396
     43 C34        -5.3514   -5.1335    0.3208 C.2       1 <0>         0.6857
     44 O1         -4.3244   -5.7067    0.0085 O.2       1 <0>        -0.5577
     45 H3         -1.3315    0.9081   -1.0806 H         1 <0>         0.1270
     46 H4          0.5547    2.4861   -1.0118 H         1 <0>         0.1315
     47 H5          2.8418    1.6605   -0.6402 H         1 <0>         0.1305
     48 H6          1.3386   -2.3478   -0.4128 H         1 <0>         0.1219
     49 H7         -0.9412   -1.5030   -0.7864 H         1 <0>         0.1233
     50 H8          7.6036   -3.1036    1.1967 H         1 <0>         0.1545
     51 H9         10.4079   -2.8533    0.2365 H         1 <0>         0.2099
     52 H10         6.7489    0.2956   -2.3664 H         1 <0>         0.1479
     53 H11         1.8995   -0.4434    1.9143 H         1 <0>         0.1380
     54 H12         0.0355   -1.2806    3.2838 H         1 <0>         0.1359
     55 H13         1.4655   -5.2733    2.8213 H         1 <0>         0.1364
     56 H14         3.3291   -4.4567    1.4388 H         1 <0>         0.1399
     57 H15        -0.1946   -4.7345    4.5023 H         1 <0>         0.1398
     58 H16        -0.7910   -3.0686    4.6957 H         1 <0>         0.1380
     59 H17        -2.4959   -2.2266    3.2514 H         1 <0>         0.1328
     60 H18        -1.3194   -2.4333    1.9325 H         1 <0>         0.1399
     61 H19        -3.6349   -2.3153    1.0513 H         1 <0>         0.1172
     62 H20        -2.9142   -3.9141    0.7423 H         1 <0>         0.1072
     63 H21        -4.8121   -3.2004    3.0259 H         1 <0>         0.1149
     64 H22        -4.6760   -5.5929    3.5959 H         1 <0>         0.1178
     65 H23        -3.5339   -5.8652    2.2570 H         1 <0>         0.1075
     66 H24        -2.3356   -5.6327    4.4163 H         1 <0>         0.1385
     67 H25        -3.0680   -4.0279    4.6499 H         1 <0>         0.1334
     68 H26        -6.9679   -2.4737    3.0403 H         1 <0>         0.1289
     69 H27        -9.3503   -2.0111    2.6382 H         1 <0>         0.1385
     70 H28       -10.5250   -3.0981    0.7703 H         1 <0>         0.1398
     71 H29        -9.3258   -4.6554   -0.7090 H         1 <0>         0.1365
     72 H30        -1.3608   -4.7902    2.3890 H         1 <0>         0.4262
@<TRIPOS>BOND
     1    1    6 ar
     2    1    2 ar
     3    1   45 1
     4    2    3 ar
     5    2   46 1
     6    3    4 ar
     7    3   47 1
     8    4    5 ar
     9    4    7 1
    10    5    6 ar
    11    5   48 1
    12    6   49 1
    13    7   20 ar
    14    7    8 ar
    15    8    9 ar
    16    8   21 1
    17    9   10 ar
    18   10   19 ar
    19   10   11 ar
    20   11   12 ar
    21   11   50 1
    22   12   17 ar
    23   12   13 1
    24   13   14 2
    25   13   51 1
    26   14   15 1
    27   15   16 1
    28   15   17 1
    29   17   18 ar
    30   18   19 ar
    31   18   52 1
    32   19   20 ar
    33   21   26 ar
    34   21   22 ar
    35   22   23 ar
    36   22   53 1
    37   23   24 ar
    38   23   54 1
    39   24   25 ar
    40   24   27 1
    41   25   26 ar
    42   25   55 1
    43   26   56 1
    44   27   28 1
    45   27   57 1
    46   27   58 1
    47   28   33 1
    48   28   29 1
    49   28   72 1
    50   29   30 1
    51   29   59 1
    52   29   60 1
    53   30   31 1
    54   30   61 1
    55   30   62 1
    56   31   32 1
    57   31   34 1
    58   31   63 1
    59   32   33 1
    60   32   64 1
    61   32   65 1
    62   33   66 1
    63   33   67 1
    64   34   43 am
    65   34   35 1
    66   35   40 ar
    67   35   36 ar
    68   36   37 ar
    69   36   68 1
    70   37   38 ar
    71   37   69 1
    72   38   39 ar
    73   38   70 1
    74   39   40 ar
    75   39   71 1
    76   40   41 1
    77   41   42 1
    78   41   43 am
    79   43   44 2
@<TRIPOS>MOLECULE
CHEMBL180231
   72    79     0     0     0
SMALL
USER_CHARGES

@<TRIPOS>ATOM
      1 C1         -0.3309    0.5296   -0.9312 C.ar      1 <0>        -0.1010
      2 C2          0.7273    1.4198   -0.8881 C.ar      1 <0>        -0.1177
      3 C3          2.0110    0.9602   -0.6767 C.ar      1 <0>        -0.0736
      4 C4          2.2407   -0.4051   -0.5064 C.ar      1 <0>        -0.0512
      5 C5          1.1695   -1.2976   -0.5509 C.ar      1 <0>        -0.0895
      6 C6         -0.1096   -0.8257   -0.7630 C.ar      1 <0>        -0.1269
      7 C7          3.6160   -0.9051   -0.2796 C.ar      1 <0>         0.1904
      8 C8          3.8654   -1.8982    0.7668 C.ar      1 <0>         0.1258
      9 N1          5.0829   -2.3519    0.9797 N.ar      1 <0>        -0.3880
     10 C9          6.1059   -1.9026    0.2328 C.ar      1 <0>         0.0038
     11 C10         7.3936   -2.3794    0.4538 C.ar      1 <0>         0.0435
     12 C11         8.4551   -1.9062   -0.3291 C.ar      1 <0>        -0.1997
     13 C12         9.8191   -2.1726   -0.3610 C.2       1 <0>         0.1134
     14 N2         10.3625   -1.4238   -1.3259 N.pl3     1 <0>        -0.3880
     15 N3          9.3771   -0.6514   -1.9488 N.2       1 <0>        -0.3054
     16 H1         11.3038   -1.4170   -1.5598 H         1 <0>         0.4536
     17 C13         8.2052   -0.9068   -1.3820 C.ar      1 <0>         0.1201
     18 C14         6.9040   -0.4324   -1.5981 C.ar      1 <0>        -0.0628
     19 C15         5.8561   -0.9062   -0.8176 C.ar      1 <0>         0.0988
     20 N4          4.6056   -0.4575   -1.0241 N.ar      1 <0>        -0.4195
     21 C16         2.7405   -2.3956    1.5917 C.ar      1 <0>         0.0065
     22 C17         1.8052   -1.5014    2.1127 C.ar      1 <0>        -0.0810
     23 C18         0.7595   -1.9709    2.8806 C.ar      1 <0>        -0.0954
     24 C19         0.6374   -3.3255    3.1341 C.ar      1 <0>        -0.1552
     25 C20         1.5618   -4.2174    2.6202 C.ar      1 <0>        -0.0912
     26 C21         2.6088   -3.7607    1.8461 C.ar      1 <0>        -0.0813
     27 C22        -0.5069   -3.8315    3.9740 C.3       1 <0>         0.0443
     28 N5         -1.6519   -4.1397    3.1069 N.4       1 <0>        -0.3852
     29 C23        -2.1360   -2.9037    2.4804 C.3       1 <0>        -0.0074
     30 C24        -3.2766   -3.2301    1.5139 C.3       1 <0>        -0.1649
     31 C25        -4.4196   -3.8937    2.2874 C.3       1 <0>         0.1608
     32 C26        -3.8857   -5.1411    2.9974 C.3       1 <0>        -0.1669
     33 C27        -2.7225   -4.7439    3.9089 C.3       1 <0>         0.0012
     34 N6         -5.4833   -4.2776    1.3561 N.am      1 <0>        -0.5372
     35 C28        -6.7988   -3.8211    1.3881 C.ar      1 <0>         0.0799
     36 C29        -7.4819   -2.9446    2.2174 C.ar      1 <0>        -0.1043
     37 C30        -8.8191   -2.6846    1.9905 C.ar      1 <0>        -0.1029
     38 C31        -9.4805   -3.2957    0.9389 C.ar      1 <0>        -0.0992
     39 C32        -8.8086   -4.1705    0.1079 C.ar      1 <0>        -0.1002
     40 C33        -7.4657   -4.4371    0.3272 C.ar      1 <0>         0.0915
     41 N7         -6.5347   -5.2488   -0.3165 N.am      1 <0>        -0.6396
     42 H2         -6.7064   -5.8037   -1.0934 H         1 <0>         0.4396
     43 C34        -5.3544   -5.1275    0.3198 C.2       1 <0>         0.6857
     44 O1         -4.3278   -5.7016    0.0078 O.2       1 <0>        -0.5575
     45 H3         -1.3344    0.8946   -1.0924 H         1 <0>         0.1261
     46 H4          0.5483    2.4766   -1.0205 H         1 <0>         0.1309
     47 H5          2.8363    1.6560   -0.6436 H         1 <0>         0.1307
     48 H6          1.3411   -2.3559   -0.4200 H         1 <0>         0.1216
     49 H7         -0.9397   -1.5157   -0.7977 H         1 <0>         0.1224
     50 H8          7.5749   -3.1118    1.2265 H         1 <0>         0.1475
     51 H9         10.3467   -2.8626    0.2808 H         1 <0>         0.2031
     52 H10         6.7163    0.3005   -2.3689 H         1 <0>         0.1483
     53 H11         1.8997   -0.4437    1.9157 H         1 <0>         0.1381
     54 H12         0.0349   -1.2796    3.2848 H         1 <0>         0.1353
     55 H13         1.4612   -5.2736    2.8216 H         1 <0>         0.1355
     56 H14         3.3270   -4.4584    1.4415 H         1 <0>         0.1392
     57 H15        -0.1985   -4.7334    4.5028 H         1 <0>         0.1392
     58 H16        -0.7935   -3.0670    4.6962 H         1 <0>         0.1376
     59 H17        -2.4972   -2.2234    3.2515 H         1 <0>         0.1326
     60 H18        -1.3206   -2.4309    1.9329 H         1 <0>         0.1404
     61 H19        -3.6357   -2.3109    1.0511 H         1 <0>         0.1172
     62 H20        -2.9163   -3.9103    0.7421 H         1 <0>         0.1072
     63 H21        -4.8142   -3.1951    3.0252 H         1 <0>         0.1148
     64 H22        -4.6803   -5.5879    3.5950 H         1 <0>         0.1175
     65 H23        -3.5381   -5.8609    2.2564 H         1 <0>         0.1075
     66 H24        -2.3402   -5.6297    4.4161 H         1 <0>         0.1382
     67 H25        -3.0713   -4.0243    4.6496 H         1 <0>         0.1332
     68 H26        -6.9694   -2.4666    3.0392 H         1 <0>         0.1290
     69 H27        -9.3513   -2.0020    2.6364 H         1 <0>         0.1385
     70 H28       -10.5264   -3.0877    0.7680 H         1 <0>         0.1397
     71 H29        -9.3281   -4.6459   -0.7110 H         1 <0>         0.1365
     72 H30        -1.3641   -4.7879    2.3891 H         1 <0>         0.4262
@<TRIPOS>BOND
     1    1    6 ar
     2    1    2 ar
     3    1   45 1
     4    2    3 ar
     5    2   46 1
     6    3    4 ar
     7    3   47 1
     8    4    5 ar
     9    4    7 1
    10    5    6 ar
    11    5   48 1
    12    6   49 1
    13    7   20 ar
    14    7    8 ar
    15    8    9 ar
    16    8   21 1
    17    9   10 ar
    18   10   19 ar
    19   10   11 ar
    20   11   12 ar
    21   11   50 1
    22   12   17 ar
    23   12   13 2
    24   13   51 1
    25   13   14 1
    26   14   16 1
    27   14   15 1
    28   15   17 2
    29   17   18 ar
    30   18   19 ar
    31   18   52 1
    32   19   20 ar
    33   21   26 ar
    34   21   22 ar
    35   22   23 ar
    36   22   53 1
    37   23   24 ar
    38   23   54 1
    39   24   25 ar
    40   24   27 1
    41   25   26 ar
    42   25   55 1
    43   26   56 1
    44   27   28 1
    45   27   57 1
    46   27   58 1
    47   28   33 1
    48   28   29 1
    49   28   72 1
    50   29   30 1
    51   29   59 1
    52   29   60 1
    53   30   31 1
    54   30   61 1
    55   30   62 1
    56   31   32 1
    57   31   34 1
    58   31   63 1
    59   32   33 1
    60   32   64 1
    61   32   65 1
    62   33   66 1
    63   33   67 1
    64   34   43 am
    65   34   35 1
    66   35   40 ar
    67   35   36 ar
    68   36   37 ar
    69   36   68 1
    70   37   38 ar
    71   37   69 1
    72   38   39 ar
    73   38   70 1
    74   39   40 ar
    75   39   71 1
    76   40   41 1
    77   41   42 1
    78   41   43 am
    79   43   44 2
@<TRIPOS>MOLECULE
CHEMBL493251
   48    51     0     0     0
SMALL
USER_CHARGES

@<TRIPOS>ATOM
      1 C1         -0.0187    1.5258    0.0104 C.3       1 <0>        -0.1649
      2 C2          0.0021   -0.0041    0.0020 C.3       1 <0>         0.0994
      3 N1          0.6878   -0.4765   -1.2033 N.pl3     1 <0>        -0.4450
      4 C3          0.1085   -0.7452   -2.4219 C.ar      1 <0>         0.0788
      5 C4         -1.1889   -0.6846   -2.9331 C.ar      1 <0>         0.0804
      6 C5         -1.4079   -1.0418   -4.2518 C.ar      1 <0>         0.0329
      7 N2         -0.4167   -1.4367   -5.0311 N.ar      1 <0>        -0.4343
      8 C6          0.8356   -1.5139   -4.6007 C.ar      1 <0>         0.2637
      9 C7          1.1488   -1.1684   -3.2690 C.ar      1 <0>         0.0417
     10 N3          2.2847   -1.1402   -2.5505 N.2       1 <0>        -0.4452
     11 C8          2.0283   -0.7288   -1.3320 C.2       1 <0>         0.3385
     12 C9          3.0330   -0.5653   -0.2588 C.2       1 <0>         0.1312
     13 C10         4.4730   -0.8252   -0.3810 C.2       1 <0>         0.3632
     14 N4          5.0345   -0.5695    0.7684 N.2       1 <0>        -0.3413
     15 O1          4.0226   -0.1452    1.6641 O.3       1 <0>         0.0500
     16 N5          2.7926   -0.1588    0.9614 N.2       1 <0>        -0.2481
     17 N6          5.1254   -1.2679   -1.5241 N.pl3     1 <0>        -0.8016
     18 C11         1.9020   -1.9616   -5.5154 C.2       1 <0>         0.0340
     19 C12         1.9767   -1.6991   -6.8525 C.2       1 <0>        -0.1295
     20 C13         3.1449   -2.3097   -7.3335 C.2       1 <0>        -0.2056
     21 C14         3.7479   -2.9229   -6.2911 C.2       1 <0>         0.0180
     22 N7          2.9993   -2.7115   -5.1723 N.pl3     1 <0>        -0.5406
     23 H1          3.2062   -3.0381   -4.2827 H         1 <0>         0.4164
     24 O2         -2.2223   -0.2811   -2.1468 O.3       1 <0>        -0.3103
     25 C15        -3.5190   -0.2470   -2.7464 C.3       1 <0>         0.0578
     26 C16        -4.5452    0.2280   -1.7158 C.3       1 <0>        -0.1543
     27 C17        -5.9335    0.2645   -2.3578 C.3       1 <0>        -0.0048
     28 N8         -6.9187    0.7206   -1.3683 N.4       1 <0>        -0.6359
     29 H2          1.0039    1.9031    0.0027 H         1 <0>         0.0650
     30 H3         -0.5459    1.8868   -0.8726 H         1 <0>         0.0627
     31 H4         -0.5289    1.8773    0.9072 H         1 <0>         0.0853
     32 H5          0.5293   -0.3651    0.8851 H         1 <0>         0.1087
     33 H6         -1.0205   -0.3814    0.0098 H         1 <0>         0.1020
     34 H7         -2.4099   -0.9971   -4.6523 H         1 <0>         0.1694
     35 H8          4.6220   -1.4326   -2.3368 H         1 <0>         0.4278
     36 H9          6.0844   -1.4125   -1.5100 H         1 <0>         0.4215
     37 H10         1.2676   -1.1277   -7.4331 H         1 <0>         0.1417
     38 H11         3.4985   -2.2930   -8.3538 H         1 <0>         0.1427
     39 H12         4.6704   -3.4827   -6.3363 H         1 <0>         0.1719
     40 H13        -3.5098    0.4394   -3.5931 H         1 <0>         0.0793
     41 H14        -3.7861   -1.2459   -3.0914 H         1 <0>         0.0790
     42 H15        -4.5543   -0.4584   -0.8691 H         1 <0>         0.1002
     43 H16        -4.2780    1.2269   -1.3708 H         1 <0>         0.1006
     44 H17        -5.9243    0.9510   -3.2045 H         1 <0>         0.1399
     45 H18        -6.2006   -0.7343   -2.7028 H         1 <0>         0.1397
     46 H19        -6.9272    0.0852   -0.5845 H         1 <0>         0.4374
     47 H20        -6.6714    1.6453   -1.0490 H         1 <0>         0.4374
     48 H21        -7.8343    0.7447   -1.7917 H         1 <0>         0.4429
@<TRIPOS>BOND
     1    1    2 1
     2    1   29 1
     3    1   30 1
     4    1   31 1
     5    2    3 1
     6    2   32 1
     7    2   33 1
     8    3   11 1
     9    3    4 1
    10    4    9 ar
    11    4    5 ar
    12    5    6 ar
    13    5   24 1
    14    6    7 ar
    15    6   34 1
    16    7    8 ar
    17    8    9 ar
    18    8   18 1
    19    9   10 1
    20   10   11 2
    21   11   12 1
    22   12   16 2
    23   12   13 1
    24   13   14 2
    25   13   17 1
    26   14   15 1
    27   15   16 1
    28   17   35 1
    29   17   36 1
    30   18   22 1
    31   18   19 2
    32   19   20 1
    33   19   37 1
    34   20   21 2
    35   20   38 1
    36   21   22 1
    37   21   39 1
    38   22   23 1
    39   24   25 1
    40   25   26 1
    41   25   40 1
    42   25   41 1
    43   26   27 1
    44   26   42 1
    45   26   43 1
    46   27   28 1
    47   27   44 1
    48   27   45 1
    49   28   46 1
    50   28   47 1
    51   28   48 1
@<TRIPOS>MOLECULE
CHEMBL597793
   49    52     0     0     0
SMALL
USER_CHARGES

@<TRIPOS>ATOM
      1 C1         -0.1759    1.3213    0.3455 C.ar      1 <0>        -0.0817
      2 C2          0.9879    2.0619    0.4323 C.ar      1 <0>        -0.1112
      3 C3          2.2160    1.4253    0.4074 C.ar      1 <0>        -0.0215
      4 C4          2.2784    0.0478    0.2956 C.ar      1 <0>        -0.1128
      5 C5          1.1140   -0.6917    0.2088 C.ar      1 <0>        -0.0865
      6 C6         -0.1129   -0.0551    0.2337 C.ar      1 <0>        -0.1040
      7 C7         -1.3822   -0.8620    0.1396 C.3       1 <0>         0.1116
      8 O1         -1.7539   -1.0068   -1.2326 O.3       1 <0>        -0.3917
      9 C8         -2.9513   -1.7603   -1.4340 C.3       1 <0>         0.0346
     10 C9         -3.2513   -1.8504   -2.9316 C.3       1 <0>         0.0731
     11 C10        -3.4315   -0.4415   -3.5013 C.3       1 <0>        -0.1492
     12 C11        -4.5748    0.2613   -2.7626 C.3       1 <0>         0.1545
     13 N1         -5.7768   -0.5800   -2.8420 N.pl3     1 <0>        -0.6569
     14 C12        -5.6895   -1.9798   -2.4044 C.3       1 <0>         0.1510
     15 C13        -4.5336   -2.6575   -3.1471 C.3       1 <0>        -0.1536
     16 C14        -6.9680   -0.0638   -3.3193 C.ar      1 <0>         0.4619
     17 C15        -7.8917    0.5364   -2.4497 C.ar      1 <0>        -0.2038
     18 C16        -7.9439    0.7947   -1.0120 C.2       1 <0>        -0.1760
     19 C17        -9.1105    1.4151   -0.7710 C.2       1 <0>         0.0692
     20 N2         -9.8041    1.5715   -1.9432 N.pl3     1 <0>        -0.5702
     21 H1        -10.6741    1.9930   -2.0226 H         1 <0>         0.4281
     22 C18        -9.0888    1.0468   -2.9842 C.ar      1 <0>         0.3225
     23 N3         -9.2974    0.9390   -4.2957 N.ar      1 <0>        -0.5247
     24 C19        -8.4037    0.3678   -5.0733 C.ar      1 <0>         0.3279
     25 N4         -7.2644   -0.1187   -4.6143 N.ar      1 <0>        -0.5495
     26 N5         -2.1339   -2.5153   -3.6154 N.4       1 <0>        -0.6323
     27 Cl1         3.6782    2.3549    0.5158 Cl        1 <0>        -0.0541
     28 H2         -1.1347    1.8177    0.3694 H         1 <0>         0.1343
     29 H3          0.9386    3.1372    0.5192 H         1 <0>         0.1395
     30 H4          3.2369   -0.4496    0.2757 H         1 <0>         0.1388
     31 H5          1.1626   -1.7671    0.1212 H         1 <0>         0.1319
     32 H6         -1.2201   -1.8468    0.5779 H         1 <0>         0.0697
     33 H7         -2.1788   -0.3505    0.6798 H         1 <0>         0.0721
     34 H8         -2.8217   -2.7636   -1.0284 H         1 <0>         0.0779
     35 H9         -3.7805   -1.2674   -0.9264 H         1 <0>         0.1025
     36 H10        -2.5099    0.1252   -3.3685 H         1 <0>         0.1043
     37 H11        -3.6696   -0.5060   -4.5630 H         1 <0>         0.0951
     38 H12        -4.2996    0.4077   -1.7181 H         1 <0>         0.0722
     39 H13        -4.7727    1.2263   -3.2292 H         1 <0>         0.0897
     40 H14        -5.5052   -2.0162   -1.3307 H         1 <0>         0.0720
     41 H15        -6.6229   -2.4935   -2.6346 H         1 <0>         0.0921
     42 H16        -4.7614   -2.7011   -4.2121 H         1 <0>         0.1034
     43 H17        -4.3965   -3.6680   -2.7621 H         1 <0>         0.0987
     44 H18        -7.1897    0.5360   -0.2835 H         1 <0>         0.1533
     45 H19        -9.4513    1.7413    0.2005 H         1 <0>         0.1870
     46 H20        -8.6073    0.2980   -6.1317 H         1 <0>         0.2032
     47 H21        -2.0145   -3.4441   -3.2397 H         1 <0>         0.4322
     48 H22        -2.3316   -2.5748   -4.6030 H         1 <0>         0.4349
     49 H23        -1.2883   -1.9836   -3.4731 H         1 <0>         0.4404
@<TRIPOS>BOND
     1    1    6 ar
     2    1    2 ar
     3    1   28 1
     4    2    3 ar
     5    2   29 1
     6    3    4 ar
     7    3   27 1
     8    4    5 ar
     9    4   30 1
    10    5    6 ar
    11    5   31 1
    12    6    7 1
    13    7    8 1
    14    7   32 1
    15    7   33 1
    16    8    9 1
    17    9   10 1
    18    9   34 1
    19    9   35 1
    20   10   15 1
    21   10   11 1
    22   10   26 1
    23   11   12 1
    24   11   36 1
    25   11   37 1
    26   12   13 1
    27   12   38 1
    28   12   39 1
    29   13   14 1
    30   13   16 1
    31   14   15 1
    32   14   40 1
    33   14   41 1
    34   15   42 1
    35   15   43 1
    36   16   25 ar
    37   16   17 ar
    38   17   22 ar
    39   17   18 1
    40   18   19 2
    41   18   44 1
    42   19   20 1
    43   19   45 1
    44   20   21 1
    45   20   22 1
    46   22   23 ar
    47   23   24 ar
    48   24   25 ar
    49   24   46 1
    50   26   47 1
    51   26   48 1
    52   26   49 1
@<TRIPOS>MOLECULE
CHEMBL226383
   56    60     0     0     0
SMALL
USER_CHARGES

@<TRIPOS>ATOM
      1 C1         -0.0167    1.3781    0.0096 C.ar      1 <0>        -0.1013
      2 C2          1.1709    2.0855    0.0021 C.ar      1 <0>        -0.1078
      3 C3          2.3773    1.4107   -0.0130 C.ar      1 <0>        -0.1400
      4 C4          2.3960    0.0285   -0.0201 C.ar      1 <0>        -0.1304
      5 C5          1.2084   -0.6789   -0.0117 C.ar      1 <0>        -0.1027
      6 C6          0.0021   -0.0041    0.0020 C.ar      1 <0>        -0.1054
      7 C7          3.7112   -0.7071   -0.0376 C.3       1 <0>        -0.0970
      8 C8          4.1714   -0.9633    1.3989 C.3       1 <0>         0.0437
      9 H1          3.3868   -1.4885    1.9436 H         1 <0>         0.1555
     10 C9          5.4407   -1.8174    1.3832 C.3       1 <0>         0.0269
     11 O1          5.8049   -2.1541    2.7233 O.3       1 <0>        -0.3213
     12 C10         6.9187   -2.9157    2.8873 C.ar      1 <0>         0.0621
     13 C11         7.3342   -3.2893    4.1592 C.ar      1 <0>        -0.0683
     14 C12         8.4849   -4.0721    4.2756 C.ar      1 <0>        -0.0333
     15 C13         9.1674   -4.4458    3.1192 C.ar      1 <0>         0.0914
     16 N1          8.7376   -4.0683    1.9329 N.ar      1 <0>        -0.4389
     17 C14         7.6518   -3.3345    1.7858 C.ar      1 <0>         0.0255
     18 C15         8.9737   -4.4990    5.6098 C.ar      1 <0>         0.0972
     19 C16        10.1222   -5.2717    5.7015 C.ar      1 <0>        -0.0605
     20 C17        10.5648   -5.6626    6.9669 C.ar      1 <0>        -0.1288
     21 C18         9.8258   -5.2556    8.0976 C.ar      1 <0>         0.0848
     22 C19         8.6846   -4.4806    7.9103 C.ar      1 <0>         0.1187
     23 N2          8.3065   -4.1304    6.7011 N.ar      1 <0>        -0.4336
     24 N3         10.4677   -5.7667    9.1947 N.pl3     1 <0>        -0.4854
     25 H2         10.1857   -5.6488   10.1153 H         1 <0>         0.4501
     26 N4         11.5934   -6.4857    8.7789 N.2       1 <0>        -0.2157
     27 C20        11.6901   -6.4510    7.4710 C.2       1 <0>         0.1499
     28 C21        12.7459   -7.0938    6.6530 C.ar      1 <0>        -0.0318
     29 C22        12.4366   -7.6208    5.3998 C.ar      1 <0>        -0.0945
     30 C23        13.4237   -8.2181    4.6428 C.ar      1 <0>        -0.1176
     31 C24        14.7179   -8.2950    5.1252 C.ar      1 <0>        -0.1009
     32 C25        15.0306   -7.7744    6.3681 C.ar      1 <0>        -0.1169
     33 C26        14.0533   -7.1688    7.1313 C.ar      1 <0>        -0.0837
     34 N5          4.4519    0.3186    2.0592 N.4       1 <0>        -0.6366
     35 H3         -0.9591    1.9053    0.0259 H         1 <0>         0.1329
     36 H4          1.1563    3.1654    0.0076 H         1 <0>         0.1324
     37 H5          3.3051    1.9634   -0.0196 H         1 <0>         0.1228
     38 H6          1.2231   -1.7588   -0.0176 H         1 <0>         0.1308
     39 H7         -0.9258   -0.5567    0.0082 H         1 <0>         0.1334
     40 H8          3.5884   -1.6586   -0.5549 H         1 <0>         0.1254
     41 H9          4.4573   -0.1052   -0.5563 H         1 <0>         0.1037
     42 H10         5.2575   -2.7301    0.8162 H         1 <0>         0.1142
     43 H11         6.2504   -1.2562    0.9167 H         1 <0>         0.0925
     44 H12         6.7820   -2.9821    5.0350 H         1 <0>         0.1569
     45 H13        10.0585   -5.0510    3.1968 H         1 <0>         0.1673
     46 H14         7.3311   -3.0513    0.7941 H         1 <0>         0.1583
     47 H15        10.6622   -5.5648    4.8134 H         1 <0>         0.1469
     48 H16         8.1076   -4.1612    8.7655 H         1 <0>         0.1708
     49 H17        11.4264   -7.5619    5.0224 H         1 <0>         0.1252
     50 H18        13.1853   -8.6266    3.6718 H         1 <0>         0.1313
     51 H19        15.4871   -8.7637    4.5294 H         1 <0>         0.1294
     52 H20        16.0427   -7.8376    6.7398 H         1 <0>         0.1313
     53 H21        14.2996   -6.7583    8.0994 H         1 <0>         0.1293
     54 H22         5.1782    0.8048    1.5550 H         1 <0>         0.4322
     55 H23         3.6148    0.8819    2.0696 H         1 <0>         0.4363
     56 H24         4.7554    0.1497    3.0065 H         1 <0>         0.4428
@<TRIPOS>BOND
     1    1    6 ar
     2    1    2 ar
     3    1   35 1
     4    2    3 ar
     5    2   36 1
     6    3    4 ar
     7    3   37 1
     8    4    5 ar
     9    4    7 1
    10    5    6 ar
    11    5   38 1
    12    6   39 1
    13    7    8 1
    14    7   40 1
    15    7   41 1
    16    8    9 1
    17    8   10 1
    18    8   34 1
    19   10   11 1
    20   10   42 1
    21   10   43 1
    22   11   12 1
    23   12   17 ar
    24   12   13 ar
    25   13   14 ar
    26   13   44 1
    27   14   15 ar
    28   14   18 1
    29   15   16 ar
    30   15   45 1
    31   16   17 ar
    32   17   46 1
    33   18   23 ar
    34   18   19 ar
    35   19   20 ar
    36   19   47 1
    37   20   27 1
    38   20   21 ar
    39   21   22 ar
    40   21   24 1
    41   22   23 ar
    42   22   48 1
    43   24   25 1
    44   24   26 1
    45   26   27 2
    46   27   28 1
    47   28   33 ar
    48   28   29 ar
    49   29   30 ar
    50   29   49 1
    51   30   31 ar
    52   30   50 1
    53   31   32 ar
    54   31   51 1
    55   32   33 ar
    56   32   52 1
    57   33   53 1
    58   34   54 1
    59   34   55 1
    60   34   56 1
@<TRIPOS>MOLECULE
CHEMBL375486
   57    61     0     0     0
SMALL
USER_CHARGES

@<TRIPOS>ATOM
      1 C1         -0.9388    1.2757    0.1535 C.3       1 <0>         0.0658
      2 N1         -0.4063   -0.0862    0.0657 N.pl3     1 <0>        -0.4394
      3 C2         -0.3462   -0.8460   -1.0655 C.2       1 <0>         0.0157
      4 C3          0.2061   -2.0379   -0.7522 C.2       1 <0>        -0.1986
      5 C4          0.5016   -2.0240    0.6207 C.2       1 <0>        -0.1357
      6 C5          0.1206   -0.8084    1.1060 C.2       1 <0>         0.0513
      7 C6          0.2492   -0.3513    2.5046 C.2       1 <0>         0.1785
      8 C7          0.6728    0.9796    2.9457 C.ar      1 <0>        -0.1335
      9 C8          1.0613    2.1552    2.3005 C.ar      1 <0>        -0.0668
     10 C9          1.4059    3.2540    3.0740 C.ar      1 <0>         0.0981
     11 N2          1.3689    3.1950    4.4036 N.ar      1 <0>        -0.4331
     12 C10         1.0094    2.1094    5.0510 C.ar      1 <0>         0.1213
     13 C11         0.6469    0.9585    4.3556 C.ar      1 <0>         0.0861
     14 N3          0.2373   -0.2952    4.7260 N.pl3     1 <0>        -0.4836
     15 H1          0.1260   -0.6018    5.6395 H         1 <0>         0.4513
     16 N4         -0.0009   -1.0623    3.5806 N.2       1 <0>        -0.2051
     17 C12         1.8223    4.5134    2.4098 C.ar      1 <0>        -0.0331
     18 C13         2.2785    5.5964    3.1653 C.ar      1 <0>        -0.0679
     19 C14         2.6569    6.7527    2.4954 C.ar      1 <0>         0.0635
     20 C15         2.5694    6.7918    1.1104 C.ar      1 <0>         0.0264
     21 N5          2.1342    5.7505    0.4288 N.ar      1 <0>        -0.4381
     22 C16         1.7700    4.6323    1.0225 C.ar      1 <0>         0.0896
     23 O1          3.1068    7.8327    3.1872 O.3       1 <0>        -0.3209
     24 C17         3.4763    8.9835    2.4248 C.3       1 <0>         0.0267
     25 C18         3.9540   10.0888    3.3689 C.3       1 <0>         0.0437
     26 H2          3.1831   10.2895    4.1128 H         1 <0>         0.1556
     27 C19         4.2312   11.3611    2.5656 C.3       1 <0>        -0.0970
     28 C20         4.5830   12.4834    3.5077 C.ar      1 <0>        -0.1303
     29 C21         3.5871   13.2940    4.0195 C.ar      1 <0>        -0.1030
     30 C22         3.9098   14.3235    4.8838 C.ar      1 <0>        -0.1053
     31 C23         5.2284   14.5420    5.2366 C.ar      1 <0>        -0.1013
     32 C24         6.2242   13.7308    4.7255 C.ar      1 <0>        -0.1075
     33 C25         5.9010   12.6986    3.8646 C.ar      1 <0>        -0.1401
     34 N6          5.1855    9.6578    4.0439 N.4       1 <0>        -0.6366
     35 H3         -0.1372    1.9917   -0.0278 H         1 <0>         0.0728
     36 H4         -1.7209    1.4090   -0.5939 H         1 <0>         0.0929
     37 H5         -1.3546    1.4399    1.1477 H         1 <0>         0.0810
     38 H6         -0.6835   -0.5451   -2.0464 H         1 <0>         0.1722
     39 H7          0.3878   -2.8549   -1.4348 H         1 <0>         0.1460
     40 H8          0.9511   -2.8266    1.1865 H         1 <0>         0.1433
     41 H9          1.0933    2.2080    1.2223 H         1 <0>         0.1432
     42 H10         0.9953    2.1095    6.1309 H         1 <0>         0.1720
     43 H11         2.3351    5.5362    4.2421 H         1 <0>         0.1574
     44 H12         2.8619    7.6882    0.5838 H         1 <0>         0.1590
     45 H13         1.4230    3.8003    0.4278 H         1 <0>         0.1632
     46 H14         4.2800    8.7208    1.7369 H         1 <0>         0.0928
     47 H15         2.6143    9.3366    1.8588 H         1 <0>         0.1144
     48 H16         5.0625   11.1858    1.8828 H         1 <0>         0.1038
     49 H17         3.3428   11.6310    1.9946 H         1 <0>         0.1254
     50 H18         2.5569   13.1233    3.7439 H         1 <0>         0.1307
     51 H19         3.1318   14.9573    5.2831 H         1 <0>         0.1335
     52 H20         5.4806   15.3468    5.9113 H         1 <0>         0.1330
     53 H21         7.2544   13.9017    5.0009 H         1 <0>         0.1325
     54 H22         6.6786   12.0625    3.4683 H         1 <0>         0.1228
     55 H23         5.8992    9.4720    3.3552 H         1 <0>         0.4323
     56 H24         5.5005   10.3867    4.6664 H         1 <0>         0.4365
     57 H25         5.0027    8.8188    4.5736 H         1 <0>         0.4427
@<TRIPOS>BOND
     1    1    2 1
     2    1   35 1
     3    1   36 1
     4    1   37 1
     5    2    6 1
     6    2    3 1
     7    3    4 2
     8    3   38 1
     9    4    5 1
    10    4   39 1
    11    5    6 2
    12    5   40 1
    13    6    7 1
    14    7   16 2
    15    7    8 1
    16    8   13 ar
    17    8    9 ar
    18    9   10 ar
    19    9   41 1
    20   10   11 ar
    21   10   17 1
    22   11   12 ar
    23   12   13 ar
    24   12   42 1
    25   13   14 1
    26   14   15 1
    27   14   16 1
    28   17   22 ar
    29   17   18 ar
    30   18   19 ar
    31   18   43 1
    32   19   20 ar
    33   19   23 1
    34   20   21 ar
    35   20   44 1
    36   21   22 ar
    37   22   45 1
    38   23   24 1
    39   24   25 1
    40   24   46 1
    41   24   47 1
    42   25   26 1
    43   25   27 1
    44   25   34 1
    45   27   28 1
    46   27   48 1
    47   27   49 1
    48   28   33 ar
    49   28   29 ar
    50   29   30 ar
    51   29   50 1
    52   30   31 ar
    53   30   51 1
    54   31   32 ar
    55   31   52 1
    56   32   33 ar
    57   32   53 1
    58   33   54 1
    59   34   55 1
    60   34   56 1
    61   34   57 1
@<TRIPOS>MOLECULE
CHEMBL207338
   51    54     0     0     0
SMALL
USER_CHARGES

@<TRIPOS>ATOM
      1 C1         -0.0184    1.5028    0.0103 C.3       1 <0>        -0.0806
      2 C2          0.0021   -0.0041    0.0020 C.2       1 <0>         0.1083
      3 C3          0.0084   -0.8581   -1.1820 C.ar      1 <0>        -0.1755
      4 C4         -0.0022   -0.6082   -2.5573 C.ar      1 <0>        -0.0105
      5 C5          0.0081   -1.6738   -3.4431 C.ar      1 <0>        -0.1033
      6 C6          0.0285   -2.9890   -2.9632 C.ar      1 <0>        -0.0544
      7 C7          0.0385   -3.2410   -1.6234 C.ar      1 <0>        -0.1387
      8 C8          0.0294   -2.1860   -0.7124 C.ar      1 <0>         0.1417
      9 N1          0.0351   -2.1193    0.6566 N.pl3     1 <0>        -0.5055
     10 H1          0.0492   -2.8812    1.2568 H         1 <0>         0.4438
     11 N2          0.0230   -0.7772    1.0497 N.2       1 <0>        -0.2443
     12 C9         -0.0030   -1.4201   -4.9053 C.ar      1 <0>        -0.0239
     13 C10         0.0013   -2.4845   -5.8092 C.ar      1 <0>        -0.1416
     14 C11        -0.0100   -2.1933   -7.1690 C.ar      1 <0>         0.1507
     15 C12        -0.0251   -0.8643   -7.5764 C.ar      1 <0>         0.0319
     16 N3         -0.0283    0.1147   -6.6937 N.ar      1 <0>        -0.4365
     17 C13        -0.0238   -0.1165   -5.3967 C.ar      1 <0>         0.0645
     18 N4         -0.0058   -3.2231   -8.1134 N.pl3     1 <0>        -0.7632
     19 C14        -0.0178   -2.9055   -9.5435 C.3       1 <0>         0.1014
     20 C15        -0.0101   -4.2031  -10.3541 C.3       1 <0>         0.0273
     21 H2          0.9275   -4.7322  -10.1841 H         1 <0>         0.1510
     22 C16        -0.1483   -3.8755  -11.8422 C.3       1 <0>        -0.0960
     23 C17        -0.0178   -5.1414  -12.6495 C.ar      1 <0>        -0.1308
     24 C18         1.2259   -5.5565  -13.0877 C.ar      1 <0>        -0.1038
     25 C19         1.3457   -6.7177  -13.8281 C.ar      1 <0>        -0.1053
     26 C20         0.2219   -7.4640  -14.1299 C.ar      1 <0>        -0.1020
     27 C21        -1.0216   -7.0493  -13.6910 C.ar      1 <0>        -0.1075
     28 C22        -1.1409   -5.8905  -12.9469 C.ar      1 <0>        -0.1411
     29 N5         -1.1338   -5.0503   -9.9328 N.4       1 <0>        -0.6378
     30 H3          1.0042    1.8801    0.0026 H         1 <0>         0.0876
     31 H4         -0.5455    1.8639   -0.8728 H         1 <0>         0.0843
     32 H5         -0.5286    1.8543    0.9071 H         1 <0>         0.0840
     33 H6         -0.0187    0.4067   -2.9264 H         1 <0>         0.1364
     34 H7          0.0360   -3.8126   -3.6617 H         1 <0>         0.1289
     35 H8          0.0539   -4.2604   -1.2670 H         1 <0>         0.1315
     36 H9          0.0135   -3.5069   -5.4614 H         1 <0>         0.1361
     37 H10        -0.0340   -0.6307   -8.6308 H         1 <0>         0.1507
     38 H11        -0.0314    0.7141   -4.7065 H         1 <0>         0.1610
     39 H12         0.0051   -4.1482   -7.8221 H         1 <0>         0.3927
     40 H13        -0.9149   -2.3339   -9.7812 H         1 <0>         0.0927
     41 H14         0.8649   -2.3164   -9.7923 H         1 <0>         0.1102
     42 H15        -1.1243   -3.4263  -12.0263 H         1 <0>         0.1037
     43 H16         0.6347   -3.1758  -12.1345 H         1 <0>         0.1261
     44 H17         2.1038   -4.9735  -12.8518 H         1 <0>         0.1306
     45 H18         2.3172   -7.0416  -14.1710 H         1 <0>         0.1332
     46 H19         0.3154   -8.3708  -14.7090 H         1 <0>         0.1328
     47 H20        -1.8996   -7.6322  -13.9271 H         1 <0>         0.1322
     48 H21        -2.1119   -5.5685  -12.6007 H         1 <0>         0.1224
     49 H22        -2.0018   -4.5605  -10.0902 H         1 <0>         0.4356
     50 H23        -1.1287   -5.9060  -10.4674 H         1 <0>         0.4374
     51 H24        -1.0427   -5.2663   -8.9514 H         1 <0>         0.4314
@<TRIPOS>BOND
     1    1    2 1
     2    1   30 1
     3    1   31 1
     4    1   32 1
     5    2   11 2
     6    2    3 1
     7    3    8 ar
     8    3    4 ar
     9    4    5 ar
    10    4   33 1
    11    5    6 ar
    12    5   12 1
    13    6    7 ar
    14    6   34 1
    15    7    8 ar
    16    7   35 1
    17    8    9 1
    18    9   10 1
    19    9   11 1
    20   12   17 ar
    21   12   13 ar
    22   13   14 ar
    23   13   36 1
    24   14   15 ar
    25   14   18 1
    26   15   16 ar
    27   15   37 1
    28   16   17 ar
    29   17   38 1
    30   18   19 1
    31   18   39 1
    32   19   20 1
    33   19   40 1
    34   19   41 1
    35   20   21 1
    36   20   22 1
    37   20   29 1
    38   22   23 1
    39   22   42 1
    40   22   43 1
    41   23   28 ar
    42   23   24 ar
    43   24   25 ar
    44   24   44 1
    45   25   26 ar
    46   25   45 1
    47   26   27 ar
    48   26   46 1
    49   27   28 ar
    50   27   47 1
    51   28   48 1
    52   29   49 1
    53   29   50 1
    54   29   51 1
@<TRIPOS>MOLECULE
CHEMBL260184
   72    78     0     0     0
SMALL
USER_CHARGES

@<TRIPOS>ATOM
      1 C1         -0.0167    1.3791    0.0096 C.ar      1 <0>        -0.1097
      2 C2          1.1686    2.0924    0.0021 C.ar      1 <0>        -0.1120
      3 C3          2.3774    1.4269   -0.0129 C.ar      1 <0>        -0.1036
      4 C4          2.4026    0.0330   -0.0206 C.ar      1 <0>        -0.0491
      5 C5          1.2049   -0.6804   -0.0130 C.ar      1 <0>        -0.0994
      6 C6          0.0021   -0.0041    0.0020 C.ar      1 <0>        -0.1215
      7 C7          3.6978   -0.6877   -0.0373 C.ar      1 <0>        -0.0978
      8 C8          4.6763   -0.3476   -0.9576 C.ar      1 <0>        -0.0225
      9 C9          5.8866   -1.0617   -0.9306 C.ar      1 <0>        -0.1489
     10 C10         6.9249   -0.7709   -1.8343 C.ar      1 <0>        -0.0423
     11 C11         8.0755   -1.5042   -1.7522 C.ar      1 <0>        -0.1695
     12 C12         8.1910   -2.5057   -0.7916 C.ar      1 <0>         0.1691
     13 N1          7.2207   -2.7734    0.0487 N.ar      1 <0>        -0.4654
     14 C13         6.0680   -2.0947    0.0240 C.ar      1 <0>         0.3111
     15 N2          5.0919   -2.3827    0.8895 N.ar      1 <0>        -0.4469
     16 C14         3.9497   -1.7249    0.8891 C.ar      1 <0>         0.2182
     17 C15         2.9058   -2.0841    1.8768 C.ar      1 <0>        -0.0127
     18 C16         2.0780   -1.0970    2.4110 C.ar      1 <0>        -0.0803
     19 C17         1.1071   -1.4378    3.3303 C.ar      1 <0>        -0.1006
     20 C18         0.9539   -2.7557    3.7223 C.ar      1 <0>        -0.1488
     21 C19         1.7720   -3.7394    3.1960 C.ar      1 <0>        -0.0968
     22 C20         2.7430   -3.4117    2.2720 C.ar      1 <0>        -0.0725
     23 C21        -0.1081   -3.1211    4.7271 C.3       1 <0>         0.0430
     24 N3         -1.3578   -3.4409    4.0243 N.4       1 <0>        -0.3823
     25 C22        -1.8543   -2.2403    3.3413 C.3       1 <0>        -0.0132
     26 C23        -3.1119   -2.5872    2.5415 C.3       1 <0>        -0.1346
     27 C24        -4.1873   -3.1153    3.4953 C.3       1 <0>        -0.0140
     28 C25        -3.6322   -4.3226    4.2566 C.3       1 <0>        -0.1387
     29 C26        -2.3554   -3.9114    4.9928 C.3       1 <0>        -0.0057
     30 C27        -5.4009   -3.5323    2.7052 C.2       1 <0>         0.0684
     31 C28        -5.5908   -4.7747    2.0994 C.2       1 <0>        -0.2496
     32 C29        -6.8106   -4.7585    1.4841 C.2       1 <0>         0.1596
     33 N4         -7.3608   -3.5317    1.7061 N.pl3     1 <0>        -0.4624
     34 H1         -8.2259   -3.2271    1.3904 H         1 <0>         0.4443
     35 N5         -6.4555   -2.7914    2.4772 N.2       1 <0>        -0.2704
     36 C30        -7.4212   -5.8677    0.7179 C.2       1 <0>        -0.1672
     37 C31        -7.7769   -7.0707    1.3687 C.2       1 <0>         0.0006
     38 C32        -8.3374   -8.0765    0.6428 C.2       1 <0>        -0.2264
     39 C33        -8.5516   -7.9013   -0.7357 C.2       1 <0>         0.5133
     40 O1         -9.0540   -8.8007   -1.3901 O.2       1 <0>        -0.5315
     41 N6         -8.2069   -6.7486   -1.3384 N.am      1 <0>        -0.6013
     42 H2         -8.3609   -6.6416   -2.2901 H         1 <0>         0.4231
     43 C34        -7.6517   -5.7327   -0.6324 C.2       1 <0>         0.1716
     44 H3         -0.9603    1.9042    0.0260 H         1 <0>         0.1261
     45 H4          1.1478    3.1722    0.0077 H         1 <0>         0.1298
     46 H5          3.3021    1.9847   -0.0191 H         1 <0>         0.1274
     47 H6          1.2183   -1.7603   -0.0193 H         1 <0>         0.1205
     48 H7         -0.9264   -0.5557    0.0082 H         1 <0>         0.1226
     49 H8          4.5135    0.4431   -1.6750 H         1 <0>         0.1507
     50 H9          6.8159    0.0098   -2.5725 H         1 <0>         0.1480
     51 H10         8.8924   -1.3077   -2.4307 H         1 <0>         0.1509
     52 H11         9.1052   -3.0782   -0.7375 H         1 <0>         0.1738
     53 H12         2.1969   -0.0678    2.1059 H         1 <0>         0.1428
     54 H13         0.4657   -0.6742    3.7449 H         1 <0>         0.1349
     55 H14         1.6480   -4.7664    3.5061 H         1 <0>         0.1360
     56 H15         3.3781   -4.1811    1.8584 H         1 <0>         0.1425
     57 H16         0.2181   -3.9884    5.3013 H         1 <0>         0.1389
     58 H17        -0.2750   -2.2810    5.4012 H         1 <0>         0.1368
     59 H18        -2.0935   -1.4754    4.0800 H         1 <0>         0.1309
     60 H19        -1.0866   -1.8638    2.6652 H         1 <0>         0.1349
     61 H20        -3.4799   -1.6941    2.0366 H         1 <0>         0.1138
     62 H21        -2.8736   -3.3520    1.8023 H         1 <0>         0.0921
     63 H22        -4.4626   -2.3334    4.2030 H         1 <0>         0.1037
     64 H23        -4.3723   -4.6700    4.9775 H         1 <0>         0.1170
     65 H24        -3.4048   -5.1234    3.5529 H         1 <0>         0.0948
     66 H25        -1.9577   -4.7687    5.5360 H         1 <0>         0.1348
     67 H26        -2.5839   -3.1108    5.6963 H         1 <0>         0.1315
     68 H27        -4.8969   -5.6022    2.1142 H         1 <0>         0.1504
     69 H28        -7.6058   -7.1906    2.4283 H         1 <0>         0.1408
     70 H29        -8.6155   -9.0032    1.1225 H         1 <0>         0.1580
     71 H30        -7.3853   -4.8137   -1.1332 H         1 <0>         0.1683
     72 H31        -1.1838   -4.1650    3.3435 H         1 <0>         0.4226
@<TRIPOS>BOND
     1    1    6 ar
     2    1    2 ar
     3    1   44 1
     4    2    3 ar
     5    2   45 1
     6    3    4 ar
     7    3   46 1
     8    4    5 ar
     9    4    7 1
    10    5    6 ar
    11    5   47 1
    12    6   48 1
    13    7   16 ar
    14    7    8 ar
    15    8    9 ar
    16    8   49 1
    17    9   14 ar
    18    9   10 ar
    19   10   11 ar
    20   10   50 1
    21   11   12 ar
    22   11   51 1
    23   12   13 ar
    24   12   52 1
    25   13   14 ar
    26   14   15 ar
    27   15   16 ar
    28   16   17 1
    29   17   22 ar
    30   17   18 ar
    31   18   19 ar
    32   18   53 1
    33   19   20 ar
    34   19   54 1
    35   20   21 ar
    36   20   23 1
    37   21   22 ar
    38   21   55 1
    39   22   56 1
    40   23   24 1
    41   23   57 1
    42   23   58 1
    43   24   29 1
    44   24   25 1
    45   24   72 1
    46   25   26 1
    47   25   59 1
    48   25   60 1
    49   26   27 1
    50   26   61 1
    51   26   62 1
    52   27   28 1
    53   27   30 1
    54   27   63 1
    55   28   29 1
    56   28   64 1
    57   28   65 1
    58   29   66 1
    59   29   67 1
    60   30   35 2
    61   30   31 1
    62   31   32 2
    63   31   68 1
    64   32   33 1
    65   32   36 1
    66   33   34 1
    67   33   35 1
    68   36   43 2
    69   36   37 1
    70   37   38 2
    71   37   69 1
    72   38   39 1
    73   38   70 1
    74   39   40 2
    75   39   41 am
    76   41   42 1
    77   41   43 1
    78   43   71 1
@<TRIPOS>MOLECULE
CHEMBL260184
   72    78     0     0     0
SMALL
USER_CHARGES

@<TRIPOS>ATOM
      1 C1         -0.0167    1.3791    0.0096 C.ar      1 <0>        -0.1096
      2 C2          1.1686    2.0924    0.0021 C.ar      1 <0>        -0.1114
      3 C3          2.3774    1.4269   -0.0129 C.ar      1 <0>        -0.1031
      4 C4          2.4026    0.0330   -0.0206 C.ar      1 <0>        -0.0486
      5 C5          1.2049   -0.6804   -0.0130 C.ar      1 <0>        -0.1001
      6 C6          0.0021   -0.0041    0.0020 C.ar      1 <0>        -0.1222
      7 C7          3.6978   -0.6877   -0.0373 C.ar      1 <0>        -0.0985
      8 C8          4.6763   -0.3476   -0.9576 C.ar      1 <0>        -0.0218
      9 C9          5.8866   -1.0617   -0.9306 C.ar      1 <0>        -0.1486
     10 C10         6.9249   -0.7709   -1.8343 C.ar      1 <0>        -0.0423
     11 C11         8.0755   -1.5042   -1.7522 C.ar      1 <0>        -0.1690
     12 C12         8.1910   -2.5057   -0.7916 C.ar      1 <0>         0.1696
     13 N1          7.2207   -2.7734    0.0487 N.ar      1 <0>        -0.4655
     14 C13         6.0680   -2.0947    0.0240 C.ar      1 <0>         0.3110
     15 N2          5.0919   -2.3827    0.8895 N.ar      1 <0>        -0.4465
     16 C14         3.9497   -1.7249    0.8891 C.ar      1 <0>         0.2170
     17 C15         2.9058   -2.0841    1.8768 C.ar      1 <0>        -0.0110
     18 C16         2.0780   -1.0970    2.4110 C.ar      1 <0>        -0.0800
     19 C17         1.1071   -1.4378    3.3303 C.ar      1 <0>        -0.1008
     20 C18         0.9539   -2.7557    3.7223 C.ar      1 <0>        -0.1509
     21 C19         1.7720   -3.7394    3.1960 C.ar      1 <0>        -0.0968
     22 C20         2.7430   -3.4117    2.2720 C.ar      1 <0>        -0.0726
     23 C21        -0.1081   -3.1211    4.7271 C.3       1 <0>         0.0432
     24 N3         -1.3578   -3.4409    4.0243 N.4       1 <0>        -0.3833
     25 C22        -1.8543   -2.2403    3.3413 C.3       1 <0>        -0.0124
     26 C23        -3.1119   -2.5872    2.5415 C.3       1 <0>        -0.1454
     27 C24        -4.1873   -3.1153    3.4953 C.3       1 <0>        -0.0314
     28 C25        -3.6322   -4.3226    4.2566 C.3       1 <0>        -0.1404
     29 C26        -2.3554   -3.9114    4.9928 C.3       1 <0>        -0.0062
     30 C27        -5.4009   -3.5323    2.7052 C.2       1 <0>         0.0789
     31 C28        -6.6867   -3.4132    3.1023 C.2       1 <0>        -0.2384
     32 C29        -7.5048   -3.9196    2.0738 C.2       1 <0>         0.1493
     33 N4         -6.7222   -4.3261    1.0968 N.2       1 <0>        -0.2806
     34 H1         -4.6076   -4.2835    0.9423 H         1 <0>         0.4364
     35 N5         -5.3948   -4.0852    1.4733 N.pl3     1 <0>        -0.4696
     36 C30        -8.9878   -3.9839    2.0892 C.2       1 <0>        -0.1429
     37 C31        -9.7066   -3.5051    3.2056 C.2       1 <0>        -0.0001
     38 C32       -11.0667   -3.5739    3.1984 C.2       1 <0>        -0.2309
     39 C33       -11.7251   -4.1191    2.0821 C.2       1 <0>         0.5134
     40 O1        -12.9438   -4.1842    2.0672 O.2       1 <0>        -0.5362
     41 N6        -11.0170   -4.5690    1.0295 N.am      1 <0>        -0.6033
     42 H2        -11.4818   -4.9432    0.2648 H         1 <0>         0.4221
     43 C34        -9.6624   -4.5011    1.0218 C.2       1 <0>         0.1778
     44 H3         -0.9603    1.9042    0.0260 H         1 <0>         0.1264
     45 H4          1.1478    3.1722    0.0077 H         1 <0>         0.1304
     46 H5          3.3021    1.9847   -0.0191 H         1 <0>         0.1279
     47 H6          1.2183   -1.7603   -0.0193 H         1 <0>         0.1199
     48 H7         -0.9264   -0.5557    0.0082 H         1 <0>         0.1214
     49 H8          4.5135    0.4431   -1.6750 H         1 <0>         0.1510
     50 H9          6.8159    0.0098   -2.5725 H         1 <0>         0.1483
     51 H10         8.8924   -1.3077   -2.4307 H         1 <0>         0.1513
     52 H11         9.1052   -3.0782   -0.7375 H         1 <0>         0.1741
     53 H12         2.1969   -0.0678    2.1059 H         1 <0>         0.1433
     54 H13         0.4657   -0.6742    3.7449 H         1 <0>         0.1349
     55 H14         1.6480   -4.7664    3.5061 H         1 <0>         0.1357
     56 H15         3.3781   -4.1811    1.8584 H         1 <0>         0.1429
     57 H16         0.2181   -3.9884    5.3013 H         1 <0>         0.1395
     58 H17        -0.2750   -2.2810    5.4012 H         1 <0>         0.1379
     59 H18        -2.0935   -1.4754    4.0800 H         1 <0>         0.1342
     60 H19        -1.0866   -1.8638    2.6652 H         1 <0>         0.1369
     61 H20        -3.4799   -1.6941    2.0366 H         1 <0>         0.1192
     62 H21        -2.8736   -3.3520    1.8023 H         1 <0>         0.0843
     63 H22        -4.4626   -2.3334    4.2030 H         1 <0>         0.1173
     64 H23        -4.3723   -4.6700    4.9775 H         1 <0>         0.1216
     65 H24        -3.4048   -5.1234    3.5529 H         1 <0>         0.0886
     66 H25        -1.9577   -4.7687    5.5360 H         1 <0>         0.1358
     67 H26        -2.5839   -3.1108    5.6963 H         1 <0>         0.1343
     68 H27        -7.0268   -3.0030    4.0417 H         1 <0>         0.1538
     69 H28        -9.1845   -3.0897    4.0549 H         1 <0>         0.1399
     70 H29       -11.6347   -3.2131    4.0432 H         1 <0>         0.1570
     71 H30        -9.1130   -4.8634    0.1655 H         1 <0>         0.1718
     72 H31        -1.1838   -4.1650    3.3435 H         1 <0>         0.4218
@<TRIPOS>BOND
     1    1    6 ar
     2    1    2 ar
     3    1   44 1
     4    2    3 ar
     5    2   45 1
     6    3    4 ar
     7    3   46 1
     8    4    5 ar
     9    4    7 1
    10    5    6 ar
    11    5   47 1
    12    6   48 1
    13    7   16 ar
    14    7    8 ar
    15    8    9 ar
    16    8   49 1
    17    9   14 ar
    18    9   10 ar
    19   10   11 ar
    20   10   50 1
    21   11   12 ar
    22   11   51 1
    23   12   13 ar
    24   12   52 1
    25   13   14 ar
    26   14   15 ar
    27   15   16 ar
    28   16   17 1
    29   17   22 ar
    30   17   18 ar
    31   18   19 ar
    32   18   53 1
    33   19   20 ar
    34   19   54 1
    35   20   21 ar
    36   20   23 1
    37   21   22 ar
    38   21   55 1
    39   22   56 1
    40   23   24 1
    41   23   57 1
    42   23   58 1
    43   24   29 1
    44   24   25 1
    45   24   72 1
    46   25   26 1
    47   25   59 1
    48   25   60 1
    49   26   27 1
    50   26   61 1
    51   26   62 1
    52   27   28 1
    53   27   63 1
    54   27   30 1
    55   28   29 1
    56   28   64 1
    57   28   65 1
    58   29   66 1
    59   29   67 1
    60   30   31 2
    61   30   35 1
    62   31   32 1
    63   31   68 1
    64   32   33 2
    65   32   36 1
    66   33   35 1
    67   34   35 1
    68   36   43 2
    69   36   37 1
    70   37   38 2
    71   37   69 1
    72   38   39 1
    73   38   70 1
    74   39   40 2
    75   39   41 am
    76   41   42 1
    77   41   43 1
    78   43   71 1
@<TRIPOS>MOLECULE
CHEMBL407733
   71    77     0     0     0
SMALL
USER_CHARGES

@<TRIPOS>ATOM
      1 C1         -0.0167    1.3791    0.0096 C.ar      1 <0>        -0.1096
      2 C2          1.1686    2.0924    0.0021 C.ar      1 <0>        -0.1121
      3 C3          2.3774    1.4269   -0.0129 C.ar      1 <0>        -0.1036
      4 C4          2.4026    0.0330   -0.0206 C.ar      1 <0>        -0.0493
      5 C5          1.2049   -0.6804   -0.0130 C.ar      1 <0>        -0.0993
      6 C6          0.0021   -0.0041    0.0020 C.ar      1 <0>        -0.1215
      7 C7          3.6978   -0.6877   -0.0373 C.ar      1 <0>        -0.0976
      8 C8          4.6763   -0.3476   -0.9576 C.ar      1 <0>        -0.0226
      9 C9          5.8866   -1.0617   -0.9306 C.ar      1 <0>        -0.1488
     10 C10         6.9249   -0.7709   -1.8343 C.ar      1 <0>        -0.0423
     11 C11         8.0755   -1.5042   -1.7522 C.ar      1 <0>        -0.1696
     12 C12         8.1910   -2.5057   -0.7916 C.ar      1 <0>         0.1690
     13 N1          7.2207   -2.7734    0.0487 N.ar      1 <0>        -0.4654
     14 C13         6.0680   -2.0947    0.0240 C.ar      1 <0>         0.3110
     15 N2          5.0919   -2.3827    0.8895 N.ar      1 <0>        -0.4468
     16 C14         3.9497   -1.7249    0.8891 C.ar      1 <0>         0.2183
     17 C15         2.9058   -2.0841    1.8768 C.ar      1 <0>        -0.0128
     18 C16         2.0780   -1.0970    2.4110 C.ar      1 <0>        -0.0803
     19 C17         1.1071   -1.4378    3.3303 C.ar      1 <0>        -0.1007
     20 C18         0.9539   -2.7557    3.7223 C.ar      1 <0>        -0.1489
     21 C19         1.7720   -3.7394    3.1960 C.ar      1 <0>        -0.0967
     22 C20         2.7430   -3.4117    2.2720 C.ar      1 <0>        -0.0725
     23 C21        -0.1081   -3.1211    4.7271 C.3       1 <0>         0.0430
     24 N3         -1.3578   -3.4409    4.0243 N.4       1 <0>        -0.3824
     25 C22        -1.8543   -2.2403    3.3413 C.3       1 <0>        -0.0128
     26 C23        -3.1119   -2.5872    2.5415 C.3       1 <0>        -0.1351
     27 C24        -4.1873   -3.1153    3.4953 C.3       1 <0>        -0.0137
     28 C25        -3.6322   -4.3226    4.2566 C.3       1 <0>        -0.1392
     29 C26        -2.3554   -3.9114    4.9928 C.3       1 <0>        -0.0054
     30 C27        -5.4009   -3.5323    2.7052 C.2       1 <0>         0.0706
     31 C28        -5.5907   -4.7745    2.0995 C.2       1 <0>        -0.2525
     32 C29        -6.8102   -4.7583    1.4837 C.2       1 <0>         0.1491
     33 N4         -7.3605   -3.5313    1.7055 N.pl3     1 <0>        -0.4639
     34 H1         -8.2254   -3.2267    1.3892 H         1 <0>         0.4438
     35 N5         -6.4556   -2.7913    2.4772 N.2       1 <0>        -0.2669
     36 C30        -7.4206   -5.8677    0.7179 C.ar      1 <0>        -0.1007
     37 C31        -8.6811   -5.7167    0.1294 C.ar      1 <0>        -0.0629
     38 C32        -9.2075   -6.7840   -0.5767 C.ar      1 <0>        -0.1625
     39 C33        -8.4779   -7.9550   -0.6773 C.ar      1 <0>         0.1168
     40 N6         -7.2916   -8.0685   -0.1119 N.ar      1 <0>        -0.4767
     41 C34        -6.7466   -7.0791    0.5656 C.ar      1 <0>         0.1341
     42 H2         -0.9603    1.9042    0.0260 H         1 <0>         0.1261
     43 H3          1.1478    3.1722    0.0077 H         1 <0>         0.1298
     44 H4          3.3021    1.9847   -0.0191 H         1 <0>         0.1274
     45 H5          1.2183   -1.7603   -0.0193 H         1 <0>         0.1206
     46 H6         -0.9264   -0.5557    0.0082 H         1 <0>         0.1227
     47 H7          4.5135    0.4431   -1.6750 H         1 <0>         0.1507
     48 H8          6.8159    0.0098   -2.5725 H         1 <0>         0.1479
     49 H9          8.8924   -1.3077   -2.4307 H         1 <0>         0.1508
     50 H10         9.1052   -3.0782   -0.7375 H         1 <0>         0.1738
     51 H11         2.1969   -0.0678    2.1059 H         1 <0>         0.1428
     52 H12         0.4657   -0.6742    3.7449 H         1 <0>         0.1348
     53 H13         1.6480   -4.7664    3.5061 H         1 <0>         0.1361
     54 H14         3.3781   -4.1811    1.8584 H         1 <0>         0.1426
     55 H15         0.2181   -3.9884    5.3013 H         1 <0>         0.1390
     56 H16        -0.2750   -2.2810    5.4012 H         1 <0>         0.1368
     57 H17        -2.0935   -1.4754    4.0800 H         1 <0>         0.1310
     58 H18        -1.0866   -1.8638    2.6652 H         1 <0>         0.1352
     59 H19        -3.4799   -1.6941    2.0366 H         1 <0>         0.1141
     60 H20        -2.8736   -3.3520    1.8023 H         1 <0>         0.0925
     61 H21        -4.4626   -2.3334    4.2030 H         1 <0>         0.1044
     62 H22        -4.3723   -4.6700    4.9775 H         1 <0>         0.1173
     63 H23        -3.4048   -5.1234    3.5529 H         1 <0>         0.0949
     64 H24        -1.9577   -4.7687    5.5360 H         1 <0>         0.1352
     65 H25        -2.5839   -3.1108    5.6963 H         1 <0>         0.1316
     66 H26        -4.8967   -5.6019    2.1144 H         1 <0>         0.1523
     67 H27        -9.2292   -4.7910    0.2241 H         1 <0>         0.1329
     68 H28       -10.1779   -6.7037   -1.0439 H         1 <0>         0.1462
     69 H29        -8.8863   -8.7898   -1.2275 H         1 <0>         0.1660
     70 H30        -5.7711   -7.2087    1.0108 H         1 <0>         0.1609
     71 H31        -1.1838   -4.1650    3.3435 H         1 <0>         0.4228
@<TRIPOS>BOND
     1    1    6 ar
     2    1    2 ar
     3    1   42 1
     4    2    3 ar
     5    2   43 1
     6    3    4 ar
     7    3   44 1
     8    4    5 ar
     9    4    7 1
    10    5    6 ar
    11    5   45 1
    12    6   46 1
    13    7   16 ar
    14    7    8 ar
    15    8    9 ar
    16    8   47 1
    17    9   14 ar
    18    9   10 ar
    19   10   11 ar
    20   10   48 1
    21   11   12 ar
    22   11   49 1
    23   12   13 ar
    24   12   50 1
    25   13   14 ar
    26   14   15 ar
    27   15   16 ar
    28   16   17 1
    29   17   22 ar
    30   17   18 ar
    31   18   19 ar
    32   18   51 1
    33   19   20 ar
    34   19   52 1
    35   20   21 ar
    36   20   23 1
    37   21   22 ar
    38   21   53 1
    39   22   54 1
    40   23   24 1
    41   23   55 1
    42   23   56 1
    43   24   29 1
    44   24   25 1
    45   24   71 1
    46   25   26 1
    47   25   57 1
    48   25   58 1
    49   26   27 1
    50   26   59 1
    51   26   60 1
    52   27   28 1
    53   27   30 1
    54   27   61 1
    55   28   29 1
    56   28   62 1
    57   28   63 1
    58   29   64 1
    59   29   65 1
    60   30   35 2
    61   30   31 1
    62   31   32 2
    63   31   66 1
    64   32   33 1
    65   32   36 1
    66   33   34 1
    67   33   35 1
    68   36   41 ar
    69   36   37 ar
    70   37   38 ar
    71   37   67 1
    72   38   39 ar
    73   38   68 1
    74   39   40 ar
    75   39   69 1
    76   40   41 ar
    77   41   70 1
@<TRIPOS>MOLECULE
CHEMBL407733
   71    77     0     0     0
SMALL
USER_CHARGES

@<TRIPOS>ATOM
      1 C1         -0.0167    1.3791    0.0096 C.ar      1 <0>        -0.1096
      2 C2          1.1686    2.0924    0.0021 C.ar      1 <0>        -0.1114
      3 C3          2.3774    1.4269   -0.0129 C.ar      1 <0>        -0.1031
      4 C4          2.4026    0.0330   -0.0206 C.ar      1 <0>        -0.0487
      5 C5          1.2049   -0.6804   -0.0130 C.ar      1 <0>        -0.1000
      6 C6          0.0021   -0.0041    0.0020 C.ar      1 <0>        -0.1222
      7 C7          3.6978   -0.6877   -0.0373 C.ar      1 <0>        -0.0984
      8 C8          4.6763   -0.3476   -0.9576 C.ar      1 <0>        -0.0219
      9 C9          5.8866   -1.0617   -0.9306 C.ar      1 <0>        -0.1485
     10 C10         6.9249   -0.7709   -1.8343 C.ar      1 <0>        -0.0423
     11 C11         8.0755   -1.5042   -1.7522 C.ar      1 <0>        -0.1690
     12 C12         8.1910   -2.5057   -0.7916 C.ar      1 <0>         0.1695
     13 N1          7.2207   -2.7734    0.0487 N.ar      1 <0>        -0.4655
     14 C13         6.0680   -2.0947    0.0240 C.ar      1 <0>         0.3110
     15 N2          5.0919   -2.3827    0.8895 N.ar      1 <0>        -0.4465
     16 C14         3.9497   -1.7249    0.8891 C.ar      1 <0>         0.2171
     17 C15         2.9058   -2.0841    1.8768 C.ar      1 <0>        -0.0111
     18 C16         2.0780   -1.0970    2.4110 C.ar      1 <0>        -0.0800
     19 C17         1.1071   -1.4378    3.3303 C.ar      1 <0>        -0.1008
     20 C18         0.9539   -2.7557    3.7223 C.ar      1 <0>        -0.1508
     21 C19         1.7720   -3.7394    3.1960 C.ar      1 <0>        -0.0968
     22 C20         2.7430   -3.4117    2.2720 C.ar      1 <0>        -0.0726
     23 C21        -0.1081   -3.1211    4.7271 C.3       1 <0>         0.0433
     24 N3         -1.3578   -3.4409    4.0243 N.4       1 <0>        -0.3833
     25 C22        -1.8543   -2.2403    3.3413 C.3       1 <0>        -0.0121
     26 C23        -3.1119   -2.5872    2.5415 C.3       1 <0>        -0.1456
     27 C24        -4.1873   -3.1153    3.4953 C.3       1 <0>        -0.0311
     28 C25        -3.6322   -4.3226    4.2566 C.3       1 <0>        -0.1406
     29 C26        -2.3554   -3.9114    4.9928 C.3       1 <0>        -0.0059
     30 C27        -5.4009   -3.5323    2.7052 C.2       1 <0>         0.0771
     31 C28        -6.6866   -3.4132    3.1023 C.2       1 <0>        -0.2354
     32 C29        -7.5048   -3.9196    2.0738 C.2       1 <0>         0.1300
     33 N4         -6.7222   -4.3262    1.0967 N.2       1 <0>        -0.2657
     34 H1         -4.6075   -4.2830    0.9420 H         1 <0>         0.4370
     35 N5         -5.3947   -4.0852    1.4732 N.pl3     1 <0>        -0.4683
     36 C30        -8.9875   -3.9842    2.0893 C.ar      1 <0>        -0.0831
     37 C31        -9.6819   -4.6107    1.0509 C.ar      1 <0>        -0.0460
     38 C32       -11.0643   -4.6443    1.1120 C.ar      1 <0>        -0.1705
     39 C33       -11.7082   -4.0621    2.1887 C.ar      1 <0>         0.1131
     40 N6        -11.0256   -3.4774    3.1539 N.ar      1 <0>        -0.4812
     41 C34        -9.7091   -3.4263    3.1420 C.ar      1 <0>         0.1283
     42 H2         -0.9603    1.9042    0.0260 H         1 <0>         0.1263
     43 H3          1.1478    3.1722    0.0077 H         1 <0>         0.1304
     44 H4          3.3021    1.9847   -0.0191 H         1 <0>         0.1279
     45 H5          1.2183   -1.7603   -0.0193 H         1 <0>         0.1199
     46 H6         -0.9264   -0.5557    0.0082 H         1 <0>         0.1213
     47 H7          4.5135    0.4431   -1.6750 H         1 <0>         0.1510
     48 H8          6.8159    0.0098   -2.5725 H         1 <0>         0.1483
     49 H9          8.8924   -1.3077   -2.4307 H         1 <0>         0.1513
     50 H10         9.1052   -3.0782   -0.7375 H         1 <0>         0.1741
     51 H11         2.1969   -0.0678    2.1059 H         1 <0>         0.1434
     52 H12         0.4657   -0.6742    3.7449 H         1 <0>         0.1350
     53 H13         1.6480   -4.7664    3.5061 H         1 <0>         0.1356
     54 H14         3.3781   -4.1811    1.8584 H         1 <0>         0.1429
     55 H15         0.2181   -3.9884    5.3013 H         1 <0>         0.1396
     56 H16        -0.2750   -2.2810    5.4012 H         1 <0>         0.1380
     57 H17        -2.0935   -1.4754    4.0800 H         1 <0>         0.1344
     58 H18        -1.0866   -1.8638    2.6652 H         1 <0>         0.1371
     59 H19        -3.4799   -1.6941    2.0366 H         1 <0>         0.1192
     60 H20        -2.8736   -3.3520    1.8023 H         1 <0>         0.0842
     61 H21        -4.4626   -2.3334    4.2030 H         1 <0>         0.1179
     62 H22        -4.3723   -4.6700    4.9775 H         1 <0>         0.1217
     63 H23        -3.4048   -5.1234    3.5529 H         1 <0>         0.0885
     64 H24        -1.9577   -4.7687    5.5360 H         1 <0>         0.1360
     65 H25        -2.5839   -3.1108    5.6963 H         1 <0>         0.1345
     66 H26        -7.0266   -3.0032    4.0418 H         1 <0>         0.1558
     67 H27        -9.1532   -5.0571    0.2216 H         1 <0>         0.1406
     68 H28       -11.6339   -5.1197    0.3272 H         1 <0>         0.1431
     69 H29       -12.7867   -4.0864    2.2398 H         1 <0>         0.1630
     70 H30        -9.1850   -2.9433    3.9533 H         1 <0>         0.1587
     71 H31        -1.1838   -4.1650    3.3435 H         1 <0>         0.4218
@<TRIPOS>BOND
     1    1    6 ar
     2    1    2 ar
     3    1   42 1
     4    2    3 ar
     5    2   43 1
     6    3    4 ar
     7    3   44 1
     8    4    5 ar
     9    4    7 1
    10    5    6 ar
    11    5   45 1
    12    6   46 1
    13    7   16 ar
    14    7    8 ar
    15    8    9 ar
    16    8   47 1
    17    9   14 ar
    18    9   10 ar
    19   10   11 ar
    20   10   48 1
    21   11   12 ar
    22   11   49 1
    23   12   13 ar
    24   12   50 1
    25   13   14 ar
    26   14   15 ar
    27   15   16 ar
    28   16   17 1
    29   17   22 ar
    30   17   18 ar
    31   18   19 ar
    32   18   51 1
    33   19   20 ar
    34   19   52 1
    35   20   21 ar
    36   20   23 1
    37   21   22 ar
    38   21   53 1
    39   22   54 1
    40   23   24 1
    41   23   55 1
    42   23   56 1
    43   24   29 1
    44   24   25 1
    45   24   71 1
    46   25   26 1
    47   25   57 1
    48   25   58 1
    49   26   27 1
    50   26   59 1
    51   26   60 1
    52   27   28 1
    53   27   61 1
    54   27   30 1
    55   28   29 1
    56   28   62 1
    57   28   63 1
    58   29   64 1
    59   29   65 1
    60   30   31 2
    61   30   35 1
    62   31   32 1
    63   31   66 1
    64   32   33 2
    65   32   36 1
    66   33   35 1
    67   34   35 1
    68   36   41 ar
    69   36   37 ar
    70   37   38 ar
    71   37   67 1
    72   38   39 ar
    73   38   68 1
    74   39   40 ar
    75   39   69 1
    76   40   41 ar
    77   41   70 1
@<TRIPOS>MOLECULE
CHEMBL229320
   50    53     0     0     0
SMALL
USER_CHARGES

@<TRIPOS>ATOM
      1 C1         -0.0184    1.5028    0.0103 C.3       1 <0>        -0.0807
      2 C2          0.0021   -0.0041    0.0020 C.2       1 <0>         0.1088
      3 C3          0.0083   -0.8581   -1.1820 C.ar      1 <0>        -0.1763
      4 C4         -0.0019   -0.6082   -2.5573 C.ar      1 <0>        -0.0082
      5 C5          0.0079   -1.6738   -3.4431 C.ar      1 <0>        -0.1064
      6 C6          0.0279   -2.9891   -2.9631 C.ar      1 <0>        -0.0534
      7 C7          0.0380   -3.2410   -1.6234 C.ar      1 <0>        -0.1371
      8 C8          0.0285   -2.1860   -0.7124 C.ar      1 <0>         0.1441
      9 N1          0.0337   -2.1193    0.6566 N.pl3     1 <0>        -0.5044
     10 H1          0.0468   -2.8812    1.2569 H         1 <0>         0.4444
     11 N2          0.0230   -0.7772    1.0497 N.2       1 <0>        -0.2434
     12 C9         -0.0034   -1.4202   -4.9053 C.ar      1 <0>        -0.0268
     13 C10         0.0004   -2.4846   -5.8096 C.ar      1 <0>        -0.1012
     14 C11        -0.0110   -2.1940   -7.1677 C.ar      1 <0>         0.0695
     15 C12        -0.0257   -0.8671   -7.5756 C.ar      1 <0>         0.0161
     16 N3         -0.0289    0.1132   -6.6940 N.ar      1 <0>        -0.4367
     17 C13        -0.0238   -0.1167   -5.3969 C.ar      1 <0>         0.0815
     18 O1         -0.0074   -3.1961   -8.0859 O.3       1 <0>        -0.3229
     19 C14        -0.0198   -2.8144   -9.4629 C.3       1 <0>         0.0276
     20 C15        -0.0136   -4.0682  -10.3397 C.3       1 <0>         0.0426
     21 H2          0.8359   -4.6958  -10.0703 H         1 <0>         0.1569
     22 C16         0.0989   -3.6615  -11.8104 C.3       1 <0>        -0.0973
     23 C17         0.2286   -4.8962  -12.6646 C.ar      1 <0>        -0.1241
     24 C18         1.4794   -5.4137  -12.9461 C.ar      1 <0>        -0.0848
     25 C19         1.5988   -6.5461  -13.7295 C.ar      1 <0>        -0.0983
     26 C20         0.4675   -7.1617  -14.2318 C.ar      1 <0>        -0.0689
     27 C21        -0.7836   -6.6445  -13.9504 C.ar      1 <0>        -0.0953
     28 C22        -0.9030   -5.5145  -13.1617 C.ar      1 <0>        -0.1083
     29 I1         -2.4983   -7.5767  -14.7119 I         1 <0>        -0.0157
     30 N4         -1.2605   -4.8167  -10.1327 N.4       1 <0>        -0.6381
     31 H3          1.0042    1.8801    0.0026 H         1 <0>         0.0878
     32 H4         -0.5455    1.8639   -0.8728 H         1 <0>         0.0842
     33 H5         -0.5286    1.8543    0.9071 H         1 <0>         0.0843
     34 H6         -0.0177    0.4067   -2.9264 H         1 <0>         0.1366
     35 H7          0.0350   -3.8127   -3.6617 H         1 <0>         0.1316
     36 H8          0.0531   -4.2604   -1.2670 H         1 <0>         0.1332
     37 H9          0.0123   -3.5071   -5.4619 H         1 <0>         0.1476
     38 H10        -0.0343   -0.6345   -8.6302 H         1 <0>         0.1565
     39 H11        -0.0314    0.7142   -4.7071 H         1 <0>         0.1670
     40 H12        -0.9167   -2.2306   -9.6700 H         1 <0>         0.0934
     41 H13         0.8631   -2.2138   -9.6814 H         1 <0>         0.1152
     42 H14        -0.7936   -3.1088  -12.1038 H         1 <0>         0.1067
     43 H15         0.9777   -3.0313  -11.9469 H         1 <0>         0.1300
     44 H16         2.3634   -4.9327  -12.5541 H         1 <0>         0.1385
     45 H17         2.5760   -6.9499  -13.9496 H         1 <0>         0.1429
     46 H18         0.5609   -8.0464  -14.8442 H         1 <0>         0.1395
     47 H19        -1.8803   -5.1130  -12.9378 H         1 <0>         0.1296
     48 H20        -1.3347   -5.0850   -9.1628 H         1 <0>         0.4436
     49 H21        -2.0469   -4.2358  -10.3821 H         1 <0>         0.4332
     50 H22        -1.2564   -5.6436  -10.7110 H         1 <0>         0.4352
@<TRIPOS>BOND
     1    1    2 1
     2    1   31 1
     3    1   32 1
     4    1   33 1
     5    2   11 2
     6    2    3 1
     7    3    8 ar
     8    3    4 ar
     9    4    5 ar
    10    4   34 1
    11    5    6 ar
    12    5   12 1
    13    6    7 ar
    14    6   35 1
    15    7    8 ar
    16    7   36 1
    17    8    9 1
    18    9   10 1
    19    9   11 1
    20   12   17 ar
    21   12   13 ar
    22   13   14 ar
    23   13   37 1
    24   14   15 ar
    25   14   18 1
    26   15   16 ar
    27   15   38 1
    28   16   17 ar
    29   17   39 1
    30   18   19 1
    31   19   20 1
    32   19   40 1
    33   19   41 1
    34   20   21 1
    35   20   22 1
    36   20   30 1
    37   22   23 1
    38   22   42 1
    39   22   43 1
    40   23   28 ar
    41   23   24 ar
    42   24   25 ar
    43   24   44 1
    44   25   26 ar
    45   25   45 1
    46   26   27 ar
    47   26   46 1
    48   27   28 ar
    49   27   29 1
    50   28   47 1
    51   30   48 1
    52   30   49 1
    53   30   50 1
@<TRIPOS>MOLECULE
CHEMBL494882
   49    52     0     0     0
SMALL
USER_CHARGES

@<TRIPOS>ATOM
      1 C1         -0.0187    1.5258    0.0104 C.3       1 <0>        -0.1651
      2 C2          0.0021   -0.0041    0.0020 C.3       1 <0>         0.0991
      3 N1         -1.3723   -0.5112    0.0124 N.pl3     1 <0>        -0.4458
      4 C3         -2.1312   -0.7950    1.1245 C.ar      1 <0>         0.0740
      5 C4         -1.9274   -0.7247    2.5030 C.ar      1 <0>         0.0934
      6 C5         -2.9519   -1.1051    3.3531 C.ar      1 <0>         0.0274
      7 N2         -4.1109   -1.5310    2.8851 N.ar      1 <0>        -0.4321
      8 C6         -4.3616   -1.6189    1.5860 C.ar      1 <0>         0.3031
      9 C7         -3.3742   -1.2514    0.6481 C.ar      1 <0>         0.0613
     10 N3         -3.3200   -1.2263   -0.6948 N.2       1 <0>        -0.4360
     11 C8         -2.1470   -0.7867   -1.0830 C.2       1 <0>         0.3412
     12 C9         -1.7235   -0.6177   -2.4903 C.2       1 <0>         0.1312
     13 C10        -2.5421   -0.9023   -3.6755 C.2       1 <0>         0.3643
     14 N4         -1.8334   -0.6335   -4.7373 N.2       1 <0>        -0.3431
     15 O1         -0.5627   -0.1765   -4.3099 O.3       1 <0>         0.0495
     16 N5         -0.5570   -0.1836   -2.8933 N.2       1 <0>        -0.2484
     17 N6         -3.8472   -1.3769   -3.6677 N.pl3     1 <0>        -0.8003
     18 C11        -5.6368   -2.0883    1.1343 C.1       1 <0>        -0.1491
     19 C12        -6.6824   -2.4730    0.7641 C.1       1 <0>        -0.0577
     20 C13        -7.9933   -2.9555    0.2998 C.3       1 <0>        -0.0638
     21 C14        -8.0388   -4.3170   -0.3967 C.3       1 <0>        -0.1595
     22 C15        -8.2224   -3.0347   -1.2109 C.3       1 <0>        -0.1599
     23 O2         -0.7408   -0.2897    3.0038 O.3       1 <0>        -0.3083
     24 C16        -0.6134   -0.2476    4.4265 C.3       1 <0>         0.0568
     25 C17         0.7797    0.2638    4.7989 C.3       1 <0>        -0.1544
     26 C18         0.9160    0.3089    6.3222 C.3       1 <0>        -0.0048
     27 N7          2.2535    0.7999    6.6797 N.4       1 <0>        -0.6359
     28 H1          1.0039    1.9031    0.0027 H         1 <0>         0.0855
     29 H2         -0.5459    1.8868   -0.8726 H         1 <0>         0.0655
     30 H3         -0.5289    1.8773    0.9072 H         1 <0>         0.0625
     31 H4          0.5123   -0.3556   -0.8948 H         1 <0>         0.1096
     32 H5          0.5293   -0.3651    0.8851 H         1 <0>         0.1022
     33 H6         -2.7999   -1.0528    4.4211 H         1 <0>         0.1714
     34 H7         -4.2955   -1.5492   -2.8249 H         1 <0>         0.4308
     35 H8         -4.3104   -1.5361   -4.5049 H         1 <0>         0.4212
     36 H9         -8.8434   -2.6805    0.9240 H         1 <0>         0.1361
     37 H10        -7.0980   -4.8555   -0.5112 H         1 <0>         0.0996
     38 H11        -8.9190   -4.9381   -0.2307 H         1 <0>         0.1093
     39 H12        -9.2233   -2.8122   -1.5805 H         1 <0>         0.1091
     40 H13        -7.4024   -2.7295   -1.8610 H         1 <0>         0.1003
     41 H14        -1.3684    0.4215    4.8392 H         1 <0>         0.0801
     42 H15        -0.7537   -1.2489    4.8336 H         1 <0>         0.0801
     43 H16         1.5347   -0.4052    4.3862 H         1 <0>         0.1008
     44 H17         0.9199    1.2652    4.3918 H         1 <0>         0.1010
     45 H18         0.1610    0.9780    6.7349 H         1 <0>         0.1398
     46 H19         0.7758   -0.6925    6.7293 H         1 <0>         0.1398
     47 H20         2.9525    0.1806    6.2977 H         1 <0>         0.4375
     48 H21         2.3834    1.7269    6.3029 H         1 <0>         0.4375
     49 H22         2.3435    0.8296    7.6843 H         1 <0>         0.4429
@<TRIPOS>BOND
     1    1    2 1
     2    1   28 1
     3    1   29 1
     4    1   30 1
     5    2    3 1
     6    2   31 1
     7    2   32 1
     8    3   11 1
     9    3    4 1
    10    4    9 ar
    11    4    5 ar
    12    5    6 ar
    13    5   23 1
    14    6    7 ar
    15    6   33 1
    16    7    8 ar
    17    8    9 ar
    18    8   18 1
    19    9   10 1
    20   10   11 2
    21   11   12 1
    22   12   16 2
    23   12   13 1
    24   13   14 2
    25   13   17 1
    26   14   15 1
    27   15   16 1
    28   17   34 1
    29   17   35 1
    30   18   19 3
    31   19   20 1
    32   20   22 1
    33   20   21 1
    34   20   36 1
    35   21   22 1
    36   21   37 1
    37   21   38 1
    38   22   39 1
    39   22   40 1
    40   23   24 1
    41   24   25 1
    42   24   41 1
    43   24   42 1
    44   25   26 1
    45   25   43 1
    46   25   44 1
    47   26   27 1
    48   26   45 1
    49   26   46 1
    50   27   47 1
    51   27   48 1
    52   27   49 1
@<TRIPOS>MOLECULE
CHEMBL383541
   51    54     0     0     0
SMALL
USER_CHARGES

@<TRIPOS>ATOM
      1 C1         -0.0165    1.3620    0.0095 C.ar      1 <0>        -0.1189
      2 C2          1.1697    2.0834    0.0021 C.ar      1 <0>        -0.0931
      3 C3          2.3856    1.4362   -0.0134 C.ar      1 <0>        -0.1109
      4 C4          2.4281    0.0456   -0.0212 C.ar      1 <0>         0.0986
      5 C5          1.2234   -0.6807   -0.0132 C.ar      1 <0>        -0.1172
      6 C6          0.0021   -0.0041    0.0020 C.ar      1 <0>        -0.1142
      7 C7          1.6036   -2.0953   -0.0245 C.2       1 <0>        -0.2380
      8 C8          2.9451   -2.1410   -0.0380 C.2       1 <0>         0.1041
      9 N1          3.4551   -0.8713   -0.0363 N.pl3     1 <0>        -0.5843
     10 H1          4.3995   -0.6501   -0.0442 H         1 <0>         0.4266
     11 C9          0.6664   -3.2754   -0.0210 C.3       1 <0>        -0.0554
     12 C10         0.2361   -3.5891   -1.4554 C.3       1 <0>         0.0436
     13 H2          1.1200   -3.7379   -2.0756 H         1 <0>         0.1529
     14 C11        -0.6144   -4.8610   -1.4661 C.3       1 <0>         0.0261
     15 O1         -0.9189   -5.2190   -2.8156 O.3       1 <0>        -0.3225
     16 C12        -1.6731   -6.3341   -3.0030 C.ar      1 <0>         0.0676
     17 C13        -2.0060   -6.7496   -4.2851 C.ar      1 <0>        -0.0908
     18 C14        -2.7851   -7.9048   -4.4257 C.ar      1 <0>        -0.0572
     19 C15        -3.1934   -8.5881   -3.2770 C.ar      1 <0>         0.0854
     20 N2         -2.8529   -8.1548   -2.0815 N.ar      1 <0>        -0.4399
     21 C16        -2.1151   -7.0742   -1.9146 C.ar      1 <0>         0.0227
     22 C17        -3.1685   -8.3916   -5.7631 C.2       1 <0>        -0.1112
     23 C18        -3.9158   -9.5004   -5.8851 C.2       1 <0>        -0.0794
     24 C19        -4.2991   -9.9871   -7.2220 C.ar      1 <0>        -0.0253
     25 C20        -3.8897   -9.3113   -8.3798 C.ar      1 <0>        -0.1656
     26 C21        -4.2718   -9.8024   -9.6101 C.ar      1 <0>         0.1035
     27 N3         -5.0117  -10.8910   -9.7057 N.ar      1 <0>        -0.4809
     28 C22        -5.4189  -11.5578   -8.6422 C.ar      1 <0>         0.1045
     29 C23        -5.0787  -11.1423   -7.3724 C.ar      1 <0>        -0.1566
     30 N4         -0.5518   -2.4687   -1.9863 N.4       1 <0>        -0.6362
     31 H3         -0.9613    1.8849    0.0259 H         1 <0>         0.1313
     32 H4          1.1388    3.1630    0.0081 H         1 <0>         0.1354
     33 H5          3.3028    2.0064   -0.0198 H         1 <0>         0.1296
     34 H6         -0.9246   -0.5587    0.0082 H         1 <0>         0.1147
     35 H7          3.5346   -3.0459   -0.0490 H         1 <0>         0.1792
     36 H8          1.1742   -4.1414    0.4036 H         1 <0>         0.1217
     37 H9         -0.2127   -3.0396    0.5787 H         1 <0>         0.0998
     38 H10        -0.0618   -5.6715   -0.9910 H         1 <0>         0.1139
     39 H11        -1.5405   -4.6834   -0.9195 H         1 <0>         0.0920
     40 H12        -1.6732   -6.1966   -5.1511 H         1 <0>         0.1486
     41 H13        -3.7946   -9.4804   -3.3710 H         1 <0>         0.1669
     42 H14        -1.8547   -6.7575   -0.9155 H         1 <0>         0.1583
     43 H15        -2.8484   -7.8565   -6.6448 H         1 <0>         0.1329
     44 H16        -4.2360  -10.0356   -5.0033 H         1 <0>         0.1324
     45 H17        -3.2847   -8.4195   -8.3092 H         1 <0>         0.1364
     46 H18        -3.9614   -9.2889  -10.5081 H         1 <0>         0.1594
     47 H19        -6.0235  -12.4437   -8.7685 H         1 <0>         0.1613
     48 H20        -5.4114  -11.6959   -6.5067 H         1 <0>         0.1407
     49 H21        -1.3700   -2.3311   -1.4122 H         1 <0>         0.4299
     50 H22         0.0090   -1.6300   -1.9793 H         1 <0>         0.4383
     51 H23        -0.8356   -2.6756   -2.9322 H         1 <0>         0.4392
@<TRIPOS>BOND
     1    1    6 ar
     2    1    2 ar
     3    1   31 1
     4    2    3 ar
     5    2   32 1
     6    3    4 ar
     7    3   33 1
     8    4    9 1
     9    4    5 ar
    10    5    6 ar
    11    5    7 1
    12    6   34 1
    13    7    8 2
    14    7   11 1
    15    8    9 1
    16    8   35 1
    17    9   10 1
    18   11   12 1
    19   11   36 1
    20   11   37 1
    21   12   13 1
    22   12   14 1
    23   12   30 1
    24   14   15 1
    25   14   38 1
    26   14   39 1
    27   15   16 1
    28   16   21 ar
    29   16   17 ar
    30   17   18 ar
    31   17   40 1
    32   18   19 ar
    33   18   22 1
    34   19   20 ar
    35   19   41 1
    36   20   21 ar
    37   21   42 1
    38   22   23 2
    39   22   43 1
    40   23   24 1
    41   23   44 1
    42   24   29 ar
    43   24   25 ar
    44   25   26 ar
    45   25   45 1
    46   26   27 ar
    47   26   46 1
    48   27   28 ar
    49   28   29 ar
    50   28   47 1
    51   29   48 1
    52   30   49 1
    53   30   50 1
    54   30   51 1
@<TRIPOS>MOLECULE
CHEMBL437122
   54    58     0     0     0
SMALL
USER_CHARGES

@<TRIPOS>ATOM
      1 C1         -0.0164    1.3571    0.0095 C.ar      1 <0>        -0.0969
      2 C2          1.1699    2.0885    0.0021 C.ar      1 <0>        -0.0859
      3 C3          2.3792    1.4650   -0.0128 C.ar      1 <0>        -0.0918
      4 C4          2.4398    0.0603   -0.0209 C.ar      1 <0>         0.1331
      5 C5          1.2323   -0.6813   -0.0134 C.ar      1 <0>        -0.1003
      6 C6          0.0021   -0.0041    0.0020 C.ar      1 <0>        -0.1066
      7 C7          1.2949   -2.0872   -0.0215 C.ar      1 <0>        -0.0681
      8 C8          2.5269   -2.6774   -0.0364 C.ar      1 <0>        -0.1807
      9 C9          3.6752   -1.8891   -0.0432 C.ar      1 <0>         0.1359
     10 N1          3.6131   -0.5795   -0.0351 N.ar      1 <0>        -0.4505
     11 C10         2.6433   -4.1799   -0.0450 C.3       1 <0>        -0.0926
     12 C11         2.6688   -4.6811   -1.4904 C.3       1 <0>         0.0417
     13 H1          3.4692   -4.1800   -2.0347 H         1 <0>         0.1578
     14 C12         2.9119   -6.1916   -1.5021 C.3       1 <0>         0.0273
     15 O1          3.0517   -6.6411   -2.8513 O.3       1 <0>        -0.3221
     16 C13         3.2743   -7.9687   -3.0395 C.ar      1 <0>         0.0674
     17 C14         3.4268   -8.4814   -4.3216 C.ar      1 <0>        -0.0907
     18 C15         3.6543   -9.8521   -4.4631 C.ar      1 <0>        -0.0475
     19 C16         3.7191  -10.6474   -3.3202 C.ar      1 <0>         0.0908
     20 N2          3.5683  -10.1187   -2.1234 N.ar      1 <0>        -0.4382
     21 C17         3.3579   -8.8280   -1.9529 C.ar      1 <0>         0.0249
     22 C18         3.8238  -10.4525   -5.8091 C.ar      1 <0>        -0.0372
     23 C19         3.7606   -9.6346   -6.9489 C.ar      1 <0>        -0.1140
     24 C20         3.9124  -10.1573   -8.1938 C.ar      1 <0>        -0.0740
     25 C21         4.1365  -11.5353   -8.3508 C.ar      1 <0>        -0.1088
     26 C22         4.2996  -12.1203   -9.6167 C.ar      1 <0>         0.1484
     27 N3          4.5076  -13.4121   -9.7195 N.ar      1 <0>        -0.4811
     28 C23         4.5737  -14.2151   -8.6662 C.ar      1 <0>         0.0854
     29 C24         4.4282  -13.7471   -7.3958 C.ar      1 <0>        -0.1542
     30 C25         4.2025  -12.3707   -7.2047 C.ar      1 <0>        -0.0227
     31 C26         4.0483  -11.8121   -5.9297 C.ar      1 <0>        -0.0866
     32 N4          1.3809   -4.3875   -2.1332 N.4       1 <0>        -0.6377
     33 H2         -0.9628    1.8771    0.0259 H         1 <0>         0.1373
     34 H3          1.1286    3.1677    0.0079 H         1 <0>         0.1405
     35 H4          3.2890    2.0469   -0.0187 H         1 <0>         0.1441
     36 H5         -0.9239   -0.5599    0.0079 H         1 <0>         0.1348
     37 H6          0.3941   -2.6830   -0.0157 H         1 <0>         0.1392
     38 H7          4.6425   -2.3695   -0.0546 H         1 <0>         0.1648
     39 H8          3.5637   -4.4758    0.4584 H         1 <0>         0.1319
     40 H9          1.7891   -4.6135    0.4750 H         1 <0>         0.1072
     41 H10         3.8229   -6.4173   -0.9477 H         1 <0>         0.1165
     42 H11         2.0676   -6.6992   -1.0356 H         1 <0>         0.0938
     43 H12         3.3705   -7.8369   -5.1864 H         1 <0>         0.1501
     44 H13         3.8945  -11.7086   -3.4171 H         1 <0>         0.1680
     45 H14         3.2447   -8.4348   -0.9534 H         1 <0>         0.1591
     46 H15         3.5886   -8.5746   -6.8342 H         1 <0>         0.1287
     47 H16         3.8605   -9.5151   -9.0606 H         1 <0>         0.1401
     48 H17         4.2537  -11.5078  -10.5051 H         1 <0>         0.1673
     49 H18         4.7475  -15.2698   -8.8203 H         1 <0>         0.1589
     50 H19         4.4848  -14.4184   -6.5517 H         1 <0>         0.1430
     51 H20         4.1006  -12.4368   -5.0503 H         1 <0>         0.1389
     52 H21         0.6400   -4.8514   -1.6293 H         1 <0>         0.4328
     53 H22         1.2206   -3.3913   -2.1255 H         1 <0>         0.4348
     54 H23         1.3977   -4.7181   -3.0864 H         1 <0>         0.4437
@<TRIPOS>BOND
     1    1    6 ar
     2    1    2 ar
     3    1   33 1
     4    2    3 ar
     5    2   34 1
     6    3    4 ar
     7    3   35 1
     8    4   10 ar
     9    4    5 ar
    10    5    6 ar
    11    5    7 ar
    12    6   36 1
    13    7    8 ar
    14    7   37 1
    15    8    9 ar
    16    8   11 1
    17    9   10 ar
    18    9   38 1
    19   11   12 1
    20   11   39 1
    21   11   40 1
    22   12   13 1
    23   12   14 1
    24   12   32 1
    25   14   15 1
    26   14   41 1
    27   14   42 1
    28   15   16 1
    29   16   21 ar
    30   16   17 ar
    31   17   18 ar
    32   17   43 1
    33   18   19 ar
    34   18   22 1
    35   19   20 ar
    36   19   44 1
    37   20   21 ar
    38   21   45 1
    39   22   31 ar
    40   22   23 ar
    41   23   24 ar
    42   23   46 1
    43   24   25 ar
    44   24   47 1
    45   25   30 ar
    46   25   26 ar
    47   26   27 ar
    48   26   48 1
    49   27   28 ar
    50   28   29 ar
    51   28   49 1
    52   29   30 ar
    53   29   50 1
    54   30   31 ar
    55   31   51 1
    56   32   52 1
    57   32   53 1
    58   32   54 1
@<TRIPOS>MOLECULE
CHEMBL258837
   44    48     0     0     0
SMALL
USER_CHARGES

@<TRIPOS>ATOM
      1 C1         -0.0168    1.3781   -0.0120 C.ar      1 <0>        -0.1541
      2 C2          1.1733    2.0825   -0.0219 C.ar      1 <0>        -0.0615
      3 C3          2.3767    1.4108   -0.0300 C.ar      1 <0>        -0.1601
      4 C4          2.4046    0.0146   -0.0284 C.ar      1 <0>         0.2073
      5 C5          1.2055   -0.6828   -0.0191 C.ar      1 <0>        -0.1625
      6 C6          0.0020   -0.0040   -0.0105 C.ar      1 <0>        -0.0549
      7 C7          1.5150   -2.1590   -0.0231 C.3       1 <0>        -0.0223
      8 C8          0.9554   -2.8262    1.2307 C.3       1 <0>        -0.1353
      9 C9          1.2431   -4.3291    1.1751 C.3       1 <0>        -0.0106
     10 N1          0.6232   -4.9042   -0.0248 N.4       1 <0>        -0.5040
     11 C10         1.2298   -4.3234   -1.2286 C.3       1 <0>        -0.0110
     12 C11         0.9412   -2.8204   -1.2738 C.3       1 <0>        -0.1313
     13 C12         3.0462   -2.2427   -0.0324 C.3       1 <0>         0.1305
     14 N2          3.5030   -0.8491   -0.0350 N.pl3     1 <0>        -0.5758
     15 C13         4.8284   -0.4480   -0.0427 C.ar      1 <0>         0.4633
     16 C14         5.4943   -0.1479    1.1521 C.ar      1 <0>        -0.1678
     17 C15         5.1272   -0.1412    2.5765 C.2       1 <0>        -0.1073
     18 C16         6.2406    0.2528    3.2574 C.2       1 <0>         0.1587
     19 N3          7.2534    0.4871    2.3801 N.pl3     1 <0>        -0.5525
     20 H1          8.1446    0.7777    2.6294 H         1 <0>         0.4396
     21 C17         6.8385    0.2549    1.0948 C.ar      1 <0>         0.3338
     22 N4          7.4276    0.3354   -0.0975 N.ar      1 <0>        -0.5110
     23 C18         6.7646    0.0441   -1.1958 C.ar      1 <0>         0.3378
     24 N5          5.5024   -0.3435   -1.1851 N.ar      1 <0>        -0.5283
     25 C19         3.8537   -0.4809    3.1364 C.1       1 <0>         0.2868
     26 N6          2.8435   -0.7503    3.5806 N.1       1 <0>        -0.4138
     27 H2         -0.9586    1.9066   -0.0010 H         1 <0>         0.1305
     28 H3          1.1596    3.1624   -0.0236 H         1 <0>         0.1313
     29 H4          3.3026    1.9668   -0.0379 H         1 <0>         0.1164
     30 H5         -0.9268   -0.5550   -0.0022 H         1 <0>         0.1219
     31 H6          1.4295   -2.3974    2.1135 H         1 <0>         0.1191
     32 H7         -0.1213   -2.6634    1.2798 H         1 <0>         0.0989
     33 H8          2.3203   -4.4915    1.1405 H         1 <0>         0.1287
     34 H9          0.8319   -4.8105    2.0624 H         1 <0>         0.1390
     35 H10         0.7629   -5.9035   -0.0279 H         1 <0>         0.4326
     36 H11         2.3075   -4.4856   -1.2066 H         1 <0>         0.1297
     37 H12         0.8091   -4.8007   -2.1136 H         1 <0>         0.1395
     38 H13        -0.1360   -2.6577   -1.3100 H         1 <0>         0.0987
     39 H14         1.4052   -2.3873   -2.1600 H         1 <0>         0.1180
     40 H15         3.4028   -2.7565    0.8603 H         1 <0>         0.0732
     41 H16         3.3920   -2.7562   -0.9295 H         1 <0>         0.0800
     42 H17         6.3080    0.3624    4.3297 H         1 <0>         0.2057
     43 H18         7.2748    0.1210   -2.1446 H         1 <0>         0.2140
     44 H19        -0.3660   -4.7055   -0.0189 H         1 <0>         0.4293
@<TRIPOS>BOND
     1    1    6 ar
     2    1    2 ar
     3    1   27 1
     4    2    3 ar
     5    2   28 1
     6    3    4 ar
     7    3   29 1
     8    4   14 1
     9    4    5 ar
    10    5    6 ar
    11    5    7 1
    12    6   30 1
    13    7   12 1
    14    7    8 1
    15    7   13 1
    16    8    9 1
    17    8   31 1
    18    8   32 1
    19    9   10 1
    20    9   33 1
    21    9   34 1
    22   10   11 1
    23   10   35 1
    24   10   44 1
    25   11   12 1
    26   11   36 1
    27   11   37 1
    28   12   38 1
    29   12   39 1
    30   13   14 1
    31   13   40 1
    32   13   41 1
    33   14   15 1
    34   15   24 ar
    35   15   16 ar
    36   16   21 ar
    37   16   17 1
    38   17   18 2
    39   17   25 1
    40   18   19 1
    41   18   42 1
    42   19   20 1
    43   19   21 1
    44   21   22 ar
    45   22   23 ar
    46   23   24 ar
    47   23   43 1
    48   25   26 3
@<TRIPOS>MOLECULE
CHEMBL252261
   66    71     0     0     0
SMALL
USER_CHARGES

@<TRIPOS>ATOM
      1 C1         -0.0225    1.8097    0.0120 C.3       1 <0>        -0.1464
      2 S1          0.0021   -0.0041    0.0020 S.3       1 <0>         0.0183
      3 C2          0.8767   -0.4266    1.4721 C.ar      1 <0>         0.3225
      4 N1          1.3174    0.5551    2.2576 N.ar      1 <0>        -0.5343
      5 C3          1.9766    0.3014    3.3689 C.ar      1 <0>         0.2359
      6 C4          2.2114   -1.0411    3.7185 C.ar      1 <0>        -0.2317
      7 C5          2.9053   -1.3920    4.8864 C.ar      1 <0>        -0.0018
      8 C6          3.0909   -2.7406    5.1528 C.ar      1 <0>        -0.1018
      9 C7          2.5820   -3.7021    4.2518 C.ar      1 <0>         0.2705
     10 N2          1.9327   -3.3451    3.1593 N.ar      1 <0>        -0.4629
     11 C8          1.7278   -2.0628    2.8584 C.ar      1 <0>         0.3655
     12 N3          1.0636   -1.7028    1.7525 N.ar      1 <0>        -0.4820
     13 C9          2.7816   -5.1415    4.5386 C.ar      1 <0>        -0.0689
     14 C10         3.9528   -5.5760    5.1591 C.ar      1 <0>        -0.0770
     15 C11         4.1327   -6.9181    5.4241 C.ar      1 <0>        -0.1194
     16 C12         3.1545   -7.8322    5.0753 C.ar      1 <0>        -0.0598
     17 C13         1.9909   -7.4074    4.4592 C.ar      1 <0>        -0.1039
     18 C14         1.7967   -6.0672    4.1946 C.ar      1 <0>        -0.0674
     19 C15         3.3576   -9.2966    5.3671 C.3       1 <0>         0.0960
     20 N4          2.8280   -9.6080    6.7015 N.3       1 <0>        -0.6805
     21 C16         3.0090  -11.0304    7.0209 C.3       1 <0>         0.0674
     22 C17         2.4465  -11.3156    8.4149 C.3       1 <0>        -0.0240
     23 C18         2.6322  -12.7748    8.7426 C.2       1 <0>         0.2348
     24 N5          1.7617  -13.7425    8.4697 N.2       1 <0>        -0.5233
     25 C19         2.2346  -14.8984    8.8892 C.2       1 <0>         0.3308
     26 N6          3.4448  -14.6713    9.4490 N.pl3     1 <0>        -0.4776
     27 H1          4.0352  -15.3304    9.8463 H         1 <0>         0.4412
     28 N7          3.6775  -13.2910    9.3355 N.2       1 <0>        -0.3074
     29 C20         1.5616  -16.2109    8.7697 C.ar      1 <0>        -0.0393
     30 C21         0.3096  -16.3032    8.1616 C.ar      1 <0>        -0.0635
     31 C22        -0.3128  -17.5299    8.0532 C.ar      1 <0>        -0.1199
     32 C23         0.3022  -18.6668    8.5466 C.ar      1 <0>        -0.0969
     33 C24         1.5436  -18.5817    9.1512 C.ar      1 <0>        -0.1186
     34 C25         2.1792  -17.3618    9.2596 C.ar      1 <0>        -0.0981
     35 C26         3.8172   -3.1690    6.3720 C.ar      1 <0>        -0.0514
     36 C27         3.2649   -4.1343    7.2126 C.ar      1 <0>        -0.0869
     37 C28         3.9459   -4.5295    8.3460 C.ar      1 <0>        -0.1151
     38 C29         5.1740   -3.9694    8.6488 C.ar      1 <0>        -0.1099
     39 C30         5.7270   -3.0112    7.8184 C.ar      1 <0>        -0.1186
     40 C31         5.0579   -2.6123    6.6792 C.ar      1 <0>        -0.1073
     41 H2          1.0001    2.1870    0.0043 H         1 <0>         0.0910
     42 H3         -0.5497    2.1708   -0.8711 H         1 <0>         0.1141
     43 H4         -0.5327    2.1613    0.9088 H         1 <0>         0.0912
     44 H5          2.3293    1.1056    3.9977 H         1 <0>         0.1843
     45 H6          3.2838   -0.6351    5.5574 H         1 <0>         0.1543
     46 H7          4.7174   -4.8634    5.4312 H         1 <0>         0.1314
     47 H8          5.0391   -7.2558    5.9044 H         1 <0>         0.1239
     48 H9          1.2311   -8.1257    4.1890 H         1 <0>         0.1301
     49 H10         0.8860   -5.7362    3.7177 H         1 <0>         0.1316
     50 H11         2.8331   -9.8921    4.6199 H         1 <0>         0.0850
     51 H12         4.4220   -9.5292    5.3353 H         1 <0>         0.0424
     52 H13         3.2528   -9.0225    7.4048 H         1 <0>         0.3437
     53 H14         2.4820  -11.6379    6.2852 H         1 <0>         0.0806
     54 H15         4.0710  -11.2750    7.0006 H         1 <0>         0.0344
     55 H16         2.9734  -10.7080    9.1506 H         1 <0>         0.0878
     56 H17         1.3845  -11.0710    8.4352 H         1 <0>         0.1039
     57 H18        -0.1718  -15.4164    7.7767 H         1 <0>         0.1410
     58 H19        -1.2821  -17.6027    7.5826 H         1 <0>         0.1335
     59 H20        -0.1892  -19.6246    8.4597 H         1 <0>         0.1299
     60 H21         2.0184  -19.4727    9.5347 H         1 <0>         0.1316
     61 H22         3.1505  -17.2974    9.7274 H         1 <0>         0.1213
     62 H23         2.3059   -4.5717    6.9776 H         1 <0>         0.1248
     63 H24         3.5191   -5.2772    8.9980 H         1 <0>         0.1268
     64 H25         5.7030   -4.2813    9.5372 H         1 <0>         0.1241
     65 H26         6.6860   -2.5771    8.0600 H         1 <0>         0.1258
     66 H27         5.4926   -1.8673    6.0293 H         1 <0>         0.1241
@<TRIPOS>BOND
     1    1    2 1
     2    1   41 1
     3    1   42 1
     4    1   43 1
     5    2    3 1
     6    3   12 ar
     7    3    4 ar
     8    4    5 ar
     9    5    6 ar
    10    5   44 1
    11    6   11 ar
    12    6    7 ar
    13    7    8 ar
    14    7   45 1
    15    8    9 ar
    16    8   35 1
    17    9   10 ar
    18    9   13 1
    19   10   11 ar
    20   11   12 ar
    21   13   18 ar
    22   13   14 ar
    23   14   15 ar
    24   14   46 1
    25   15   16 ar
    26   15   47 1
    27   16   17 ar
    28   16   19 1
    29   17   18 ar
    30   17   48 1
    31   18   49 1
    32   19   20 1
    33   19   50 1
    34   19   51 1
    35   20   21 1
    36   20   52 1
    37   21   22 1
    38   21   53 1
    39   21   54 1
    40   22   23 1
    41   22   55 1
    42   22   56 1
    43   23   28 2
    44   23   24 1
    45   24   25 2
    46   25   26 1
    47   25   29 1
    48   26   27 1
    49   26   28 1
    50   29   34 ar
    51   29   30 ar
    52   30   31 ar
    53   30   57 1
    54   31   32 ar
    55   31   58 1
    56   32   33 ar
    57   32   59 1
    58   33   34 ar
    59   33   60 1
    60   34   61 1
    61   35   40 ar
    62   35   36 ar
    63   36   37 ar
    64   36   62 1
    65   37   38 ar
    66   37   63 1
    67   38   39 ar
    68   38   64 1
    69   39   40 ar
    70   39   65 1
    71   40   66 1
@<TRIPOS>MOLECULE
CHEMBL252261
   67    72     0     0     0
SMALL
USER_CHARGES

@<TRIPOS>ATOM
      1 C1         -0.0225    1.8097    0.0120 C.3       1 <0>        -0.1489
      2 S1          0.0021   -0.0041    0.0020 S.3       1 <0>         0.0301
      3 C2         -1.7016   -0.4536    0.0159 C.ar      1 <0>         0.3271
      4 N1         -2.6174    0.5141    0.0243 N.ar      1 <0>        -0.5277
      5 C3         -3.9053    0.2400    0.0344 C.ar      1 <0>         0.2400
      6 C4         -4.3044   -1.1092    0.0361 C.ar      1 <0>        -0.2284
      7 C5         -5.6573   -1.4815    0.0460 C.ar      1 <0>         0.0087
      8 C6         -5.9597   -2.8353    0.0465 C.ar      1 <0>        -0.1084
      9 C7         -4.9101   -3.7806    0.0372 C.ar      1 <0>         0.2462
     10 N2         -3.6450   -3.4035    0.0283 N.ar      1 <0>        -0.4556
     11 C8         -3.3020   -2.1154    0.0269 C.ar      1 <0>         0.3661
     12 N3         -2.0179   -1.7350    0.0120 N.ar      1 <0>        -0.4844
     13 C9         -5.2358   -5.2255    0.0378 C.ar      1 <0>        -0.0181
     14 C10        -6.3516   -5.6914    0.7329 C.ar      1 <0>        -0.0774
     15 C11        -6.6501   -7.0385    0.7294 C.ar      1 <0>        -0.0955
     16 C12        -5.8450   -7.9265    0.0386 C.ar      1 <0>        -0.1522
     17 C13        -4.7366   -7.4705   -0.6524 C.ar      1 <0>        -0.0961
     18 C14        -4.4313   -6.1249   -0.6615 C.ar      1 <0>        -0.0704
     19 C15        -6.1764   -9.3966    0.0392 C.3       1 <0>         0.0458
     20 N4         -7.0625   -9.6993   -1.0927 N.4       1 <0>        -0.5070
     21 C16        -7.3856  -11.1323   -1.0921 C.3       1 <0>        -0.0037
     22 C17        -8.3084  -11.4476   -2.2710 C.3       1 <0>        -0.0459
     23 C18        -8.6398  -12.9177   -2.2704 C.2       1 <0>         0.2111
     24 N5         -9.6737  -13.4740   -1.6456 N.2       1 <0>        -0.5278
     25 C19        -9.6700  -14.7756   -1.8502 C.2       1 <0>         0.3536
     26 N6         -8.6038  -15.0685   -2.6292 N.pl3     1 <0>        -0.4662
     27 H1         -8.3390  -15.9457   -2.9476 H         1 <0>         0.4490
     28 N7         -7.9595  -13.8479   -2.8889 N.2       1 <0>        -0.2942
     29 C20       -10.6562  -15.7441   -1.3218 C.ar      1 <0>        -0.0558
     30 C21       -11.7166  -15.3026   -0.5302 C.ar      1 <0>        -0.0610
     31 C22       -12.6327  -16.2106   -0.0404 C.ar      1 <0>        -0.1199
     32 C23       -12.5011  -17.5565   -0.3324 C.ar      1 <0>        -0.0870
     33 C24       -11.4514  -18.0006   -1.1165 C.ar      1 <0>        -0.1160
     34 C25       -10.5324  -17.1017   -1.6178 C.ar      1 <0>        -0.0932
     35 C26        -7.3718   -3.2860    0.0573 C.ar      1 <0>        -0.0512
     36 C27        -7.8088   -4.2401   -0.8605 C.ar      1 <0>        -0.0997
     37 C28        -9.1245   -4.6562   -0.8454 C.ar      1 <0>        -0.1198
     38 C29       -10.0092   -4.1282    0.0777 C.ar      1 <0>        -0.1086
     39 C30        -9.5813   -3.1812    0.9908 C.ar      1 <0>        -0.1117
     40 C31        -8.2666   -2.7617    0.9890 C.ar      1 <0>        -0.1033
     41 H2          1.0001    2.1870    0.0043 H         1 <0>         0.1177
     42 H3         -0.5497    2.1708   -0.8711 H         1 <0>         0.0934
     43 H4         -0.5327    2.1613    0.9088 H         1 <0>         0.0934
     44 H5         -4.6386    1.0328    0.0415 H         1 <0>         0.1881
     45 H6         -6.4393   -0.7367    0.0534 H         1 <0>         0.1579
     46 H7         -6.9805   -4.9992    1.2732 H         1 <0>         0.1446
     47 H8         -7.5139   -7.4005    1.2673 H         1 <0>         0.1371
     48 H9         -4.1117   -8.1686   -1.1895 H         1 <0>         0.1375
     49 H10        -3.5683   -5.7695   -1.2049 H         1 <0>         0.1437
     50 H11        -5.2579   -9.9762   -0.0533 H         1 <0>         0.1404
     51 H12        -6.6772   -9.6558    0.9721 H         1 <0>         0.1408
     52 H13        -7.9127   -9.1628   -1.0071 H         1 <0>         0.4294
     53 H14        -6.4671  -11.7119   -1.1846 H         1 <0>         0.1366
     54 H15        -7.8863  -11.3915   -0.1593 H         1 <0>         0.1398
     55 H16        -9.2269  -10.8680   -2.1785 H         1 <0>         0.1169
     56 H17        -7.8077  -11.1884   -3.2038 H         1 <0>         0.1122
     57 H18       -11.8200  -14.2523   -0.3009 H         1 <0>         0.1390
     58 H19       -13.4541  -15.8701    0.5726 H         1 <0>         0.1361
     59 H20       -13.2205  -18.2634    0.0536 H         1 <0>         0.1343
     60 H21       -11.3537  -19.0526   -1.3407 H         1 <0>         0.1358
     61 H22        -9.7161  -17.4490   -2.2338 H         1 <0>         0.1228
     62 H23        -7.1192   -4.6525   -1.5821 H         1 <0>         0.1208
     63 H24        -9.4642   -5.3953   -1.5559 H         1 <0>         0.1240
     64 H25       -11.0381   -4.4564    0.0854 H         1 <0>         0.1270
     65 H26       -10.2765   -2.7723    1.7090 H         1 <0>         0.1304
     66 H27        -7.9325   -2.0256    1.7052 H         1 <0>         0.1281
     67 H28        -6.5989   -9.4594   -1.9562 H         1 <0>         0.4293
@<TRIPOS>BOND
     1    1    2 1
     2    1   41 1
     3    1   42 1
     4    1   43 1
     5    2    3 1
     6    3   12 ar
     7    3    4 ar
     8    4    5 ar
     9    5    6 ar
    10    5   44 1
    11    6   11 ar
    12    6    7 ar
    13    7    8 ar
    14    7   45 1
    15    8    9 ar
    16    8   35 1
    17    9   10 ar
    18    9   13 1
    19   10   11 ar
    20   11   12 ar
    21   13   18 ar
    22   13   14 ar
    23   14   15 ar
    24   14   46 1
    25   15   16 ar
    26   15   47 1
    27   16   17 ar
    28   16   19 1
    29   17   18 ar
    30   17   48 1
    31   18   49 1
    32   19   20 1
    33   19   50 1
    34   19   51 1
    35   20   21 1
    36   20   52 1
    37   20   67 1
    38   21   22 1
    39   21   53 1
    40   21   54 1
    41   22   55 1
    42   22   56 1
    43   22   23 1
    44   23   24 1
    45   23   28 2
    46   24   25 2
    47   25   29 1
    48   25   26 1
    49   26   28 1
    50   26   27 1
    51   29   34 ar
    52   29   30 ar
    53   30   31 ar
    54   30   57 1
    55   31   32 ar
    56   31   58 1
    57   32   33 ar
    58   32   59 1
    59   33   34 ar
    60   33   60 1
    61   34   61 1
    62   35   40 ar
    63   35   36 ar
    64   36   37 ar
    65   36   62 1
    66   37   38 ar
    67   37   63 1
    68   38   39 ar
    69   38   64 1
    70   39   40 ar
    71   39   65 1
    72   40   66 1
@<TRIPOS>MOLECULE
CHEMBL252261
   67    72     0     0     0
SMALL
USER_CHARGES

@<TRIPOS>ATOM
      1 C1         -0.0225    1.8097    0.0120 C.3       1 <0>        -0.1491
      2 S1          0.0021   -0.0041    0.0020 S.3       1 <0>         0.0311
      3 C2          0.8767   -0.4266    1.4721 C.ar      1 <0>         0.3273
      4 N1          1.3174    0.5551    2.2576 N.ar      1 <0>        -0.5275
      5 C3          1.9766    0.3014    3.3689 C.ar      1 <0>         0.2402
      6 C4          2.2114   -1.0411    3.7185 C.ar      1 <0>        -0.2286
      7 C5          2.9053   -1.3920    4.8864 C.ar      1 <0>         0.0093
      8 C6          3.0909   -2.7406    5.1528 C.ar      1 <0>        -0.1094
      9 C7          2.5820   -3.7021    4.2518 C.ar      1 <0>         0.2456
     10 N2          1.9327   -3.3451    3.1593 N.ar      1 <0>        -0.4552
     11 C8          1.7278   -2.0628    2.8584 C.ar      1 <0>         0.3664
     12 N3          1.0636   -1.7028    1.7525 N.ar      1 <0>        -0.4844
     13 C9          2.7816   -5.1415    4.5386 C.ar      1 <0>        -0.0170
     14 C10         3.9528   -5.5760    5.1591 C.ar      1 <0>        -0.0777
     15 C11         4.1327   -6.9181    5.4241 C.ar      1 <0>        -0.0960
     16 C12         3.1545   -7.8322    5.0753 C.ar      1 <0>        -0.1534
     17 C13         1.9909   -7.4074    4.4592 C.ar      1 <0>        -0.0952
     18 C14         1.7967   -6.0672    4.1946 C.ar      1 <0>        -0.0703
     19 C15         3.3576   -9.2966    5.3671 C.3       1 <0>         0.0461
     20 N4          2.8280   -9.6080    6.7015 N.4       1 <0>        -0.5082
     21 C16         3.0259  -11.0356    6.9860 C.3       1 <0>        -0.0028
     22 C17         2.4742  -11.3599    8.3757 C.3       1 <0>        -0.0620
     23 C18         2.6773  -12.8244    8.6675 C.2       1 <0>         0.2661
     24 N5          2.2676  -13.8171    7.9231 N.2       1 <0>        -0.5196
     25 C19         2.6214  -14.9810    8.4847 C.2       1 <0>         0.2862
     26 N6          3.2660  -14.7307    9.6031 N.2       1 <0>        -0.2826
     27 H1          3.7294  -12.8339   10.4577 H         1 <0>         0.4463
     28 N7          3.3165  -13.3336    9.7361 N.pl3     1 <0>        -0.4687
     29 C20         2.3331  -16.3293    7.9356 C.ar      1 <0>        -0.0350
     30 C21         1.6428  -16.4613    6.7326 C.ar      1 <0>        -0.0742
     31 C22         1.3777  -17.7177    6.2263 C.ar      1 <0>        -0.1245
     32 C23         1.7961  -18.8444    6.9109 C.ar      1 <0>        -0.0940
     33 C24         2.4818  -18.7191    8.1056 C.ar      1 <0>        -0.1212
     34 C25         2.7568  -17.4675    8.6184 C.ar      1 <0>        -0.0804
     35 C26         3.8172   -3.1690    6.3720 C.ar      1 <0>        -0.0502
     36 C27         3.2649   -4.1343    7.2126 C.ar      1 <0>        -0.0998
     37 C28         3.9459   -4.5295    8.3460 C.ar      1 <0>        -0.1204
     38 C29         5.1740   -3.9694    8.6488 C.ar      1 <0>        -0.1093
     39 C30         5.7270   -3.0112    7.8184 C.ar      1 <0>        -0.1114
     40 C31         5.0579   -2.6123    6.6792 C.ar      1 <0>        -0.1030
     41 H2          1.0001    2.1870    0.0043 H         1 <0>         0.0935
     42 H3         -0.5497    2.1708   -0.8711 H         1 <0>         0.1180
     43 H4         -0.5327    2.1613    0.9088 H         1 <0>         0.0935
     44 H5          2.3293    1.1056    3.9977 H         1 <0>         0.1882
     45 H6          3.2838   -0.6351    5.5574 H         1 <0>         0.1578
     46 H7          4.7174   -4.8634    5.4312 H         1 <0>         0.1444
     47 H8          5.0391   -7.2558    5.9044 H         1 <0>         0.1362
     48 H9          1.2311   -8.1257    4.1890 H         1 <0>         0.1384
     49 H10         0.8860   -5.7362    3.7177 H         1 <0>         0.1442
     50 H11         2.8331   -9.8921    4.6199 H         1 <0>         0.1430
     51 H12         4.4220   -9.5292    5.3353 H         1 <0>         0.1405
     52 H13         3.3135   -9.0567    7.3931 H         1 <0>         0.4273
     53 H14         2.5014  -11.6311    6.2388 H         1 <0>         0.1499
     54 H15         4.0903  -11.2682    6.9542 H         1 <0>         0.1371
     55 H16         2.9988  -10.7644    9.1229 H         1 <0>         0.1112
     56 H17         1.4098  -11.1273    8.4075 H         1 <0>         0.1244
     57 H18         1.3153  -15.5822    6.1974 H         1 <0>         0.1327
     58 H19         0.8424  -17.8212    5.2940 H         1 <0>         0.1317
     59 H20         1.5863  -19.8256    6.5113 H         1 <0>         0.1306
     60 H21         2.8062  -19.6021    8.6361 H         1 <0>         0.1326
     61 H22         3.2959  -17.3707    9.5492 H         1 <0>         0.1313
     62 H23         2.3059   -4.5717    6.9776 H         1 <0>         0.1208
     63 H24         3.5191   -5.2772    8.9980 H         1 <0>         0.1232
     64 H25         5.7030   -4.2813    9.5372 H         1 <0>         0.1265
     65 H26         6.6860   -2.5771    8.0600 H         1 <0>         0.1305
     66 H27         5.4926   -1.8673    6.0293 H         1 <0>         0.1285
     67 H28         1.8426   -9.3927    6.7309 H         1 <0>         0.4306
@<TRIPOS>BOND
     1    1    2 1
     2    1   41 1
     3    1   42 1
     4    1   43 1
     5    2    3 1
     6    3   12 ar
     7    3    4 ar
     8    4    5 ar
     9    5    6 ar
    10    5   44 1
    11    6   11 ar
    12    6    7 ar
    13    7    8 ar
    14    7   45 1
    15    8    9 ar
    16    8   35 1
    17    9   10 ar
    18    9   13 1
    19   10   11 ar
    20   11   12 ar
    21   13   18 ar
    22   13   14 ar
    23   14   15 ar
    24   14   46 1
    25   15   16 ar
    26   15   47 1
    27   16   17 ar
    28   16   19 1
    29   17   18 ar
    30   17   48 1
    31   18   49 1
    32   19   20 1
    33   19   50 1
    34   19   51 1
    35   20   21 1
    36   20   52 1
    37   20   67 1
    38   21   22 1
    39   21   53 1
    40   21   54 1
    41   22   55 1
    42   22   56 1
    43   22   23 1
    44   23   24 2
    45   23   28 1
    46   24   25 1
    47   25   29 1
    48   25   26 2
    49   26   28 1
    50   27   28 1
    51   29   34 ar
    52   29   30 ar
    53   30   31 ar
    54   30   57 1
    55   31   32 ar
    56   31   58 1
    57   32   33 ar
    58   32   59 1
    59   33   34 ar
    60   33   60 1
    61   34   61 1
    62   35   40 ar
    63   35   36 ar
    64   36   37 ar
    65   36   62 1
    66   37   38 ar
    67   37   63 1
    68   38   39 ar
    69   38   64 1
    70   39   40 ar
    71   39   65 1
    72   40   66 1
@<TRIPOS>MOLECULE
CHEMBL252261
   66    71     0     0     0
SMALL
USER_CHARGES

@<TRIPOS>ATOM
      1 C1         -0.0225    1.8097    0.0120 C.3       1 <0>        -0.1466
      2 S1          0.0021   -0.0041    0.0020 S.3       1 <0>         0.0191
      3 C2          0.8484   -0.4107   -1.4889 C.ar      1 <0>         0.3227
      4 N1          1.2837    0.5796   -2.2667 N.ar      1 <0>        -0.5341
      5 C3          1.9229    0.3379   -3.3923 C.ar      1 <0>         0.2361
      6 C4          2.1419   -1.0009   -3.7658 C.ar      1 <0>        -0.2318
      7 C5          2.8151   -1.3392   -4.9495 C.ar      1 <0>        -0.0013
      8 C6          2.9869   -2.6849   -5.2387 C.ar      1 <0>        -0.1027
      9 C7          2.4852   -3.6562   -4.3441 C.ar      1 <0>         0.2698
     10 N2          1.8548   -3.3109   -3.2368 N.ar      1 <0>        -0.4626
     11 C8          1.6645   -2.0319   -2.9134 C.ar      1 <0>         0.3657
     12 N3          1.0298   -1.6838   -1.7865 N.ar      1 <0>        -0.4820
     13 C9          2.6699   -5.0924   -4.6553 C.ar      1 <0>        -0.0678
     14 C10         2.6327   -5.5326   -5.9783 C.ar      1 <0>        -0.0772
     15 C11         2.8060   -6.8718   -6.2619 C.ar      1 <0>        -0.1195
     16 C12         3.0157   -7.7773   -5.2372 C.ar      1 <0>        -0.0611
     17 C13         3.0532   -7.3469   -3.9229 C.ar      1 <0>        -0.1034
     18 C14         2.8875   -6.0093   -3.6271 C.ar      1 <0>        -0.0675
     19 C15         3.2037   -9.2386   -5.5539 C.3       1 <0>         0.0966
     20 N4          4.6315   -9.5150   -5.7612 N.3       1 <0>        -0.6814
     21 C16         4.8533  -10.9334   -6.0727 C.3       1 <0>         0.0677
     22 C17         6.3485  -11.1819   -6.2815 C.3       1 <0>        -0.0398
     23 C18         6.5761  -12.6369   -6.6010 C.2       1 <0>         0.2921
     24 N5          6.1836  -13.6504   -5.8755 N.2       1 <0>        -0.5249
     25 C19         6.5553  -14.7973   -6.4598 C.2       1 <0>         0.2723
     26 N6          7.1941  -14.5150   -7.5740 N.2       1 <0>        -0.3038
     27 H1          7.6094  -12.5953   -8.4017 H         1 <0>         0.4419
     28 N7          7.2131  -13.1152   -7.6851 N.pl3     1 <0>        -0.4796
     29 C20         6.2903  -16.1604   -5.9362 C.ar      1 <0>        -0.0201
     30 C21         5.5948  -16.3271   -4.7405 C.ar      1 <0>        -0.0747
     31 C22         5.3507  -17.5971   -4.2583 C.ar      1 <0>        -0.1250
     32 C23         5.7953  -18.7032   -4.9598 C.ar      1 <0>        -0.1029
     33 C24         6.4863  -18.5435   -6.1473 C.ar      1 <0>        -0.1247
     34 C25         6.7313  -17.2782   -6.6414 C.ar      1 <0>        -0.0845
     35 C26         3.6902   -3.1001   -6.4757 C.ar      1 <0>        -0.0506
     36 C27         4.7183   -4.0397   -6.4143 C.ar      1 <0>        -0.0871
     37 C28         5.3692   -4.4227   -7.5693 C.ar      1 <0>        -0.1156
     38 C29         5.0036   -3.8759   -8.7863 C.ar      1 <0>        -0.1104
     39 C30         3.9842   -2.9431   -8.8533 C.ar      1 <0>        -0.1183
     40 C31         3.3223   -2.5567   -7.7057 C.ar      1 <0>        -0.1070
     41 H2          1.0001    2.1870    0.0043 H         1 <0>         0.0913
     42 H3         -0.5497    2.1708   -0.8711 H         1 <0>         0.0912
     43 H4         -0.5327    2.1613    0.9088 H         1 <0>         0.1143
     44 H5          2.2708    1.1489   -4.0150 H         1 <0>         0.1844
     45 H6          3.1879   -0.5750   -5.6154 H         1 <0>         0.1543
     46 H7          2.4684   -4.8268   -6.7790 H         1 <0>         0.1314
     47 H8          2.7774   -7.2139   -7.2859 H         1 <0>         0.1234
     48 H9          3.2169   -8.0585   -3.1272 H         1 <0>         0.1305
     49 H10         2.9213   -5.6738   -2.6011 H         1 <0>         0.1319
     50 H11         2.8338   -9.8407   -4.7239 H         1 <0>         0.0870
     51 H12         2.6501   -9.4884   -6.4590 H         1 <0>         0.0430
     52 H13         5.0135   -8.9223   -6.4828 H         1 <0>         0.3420
     53 H14         4.4949  -11.5472   -5.2464 H         1 <0>         0.0924
     54 H15         4.3112  -11.1949   -6.9814 H         1 <0>         0.0335
     55 H16         6.7070  -10.5680   -7.1078 H         1 <0>         0.0865
     56 H17         6.8907  -10.9203   -5.3727 H         1 <0>         0.1126
     57 H18         5.2475  -15.4641   -4.1918 H         1 <0>         0.1356
     58 H19         4.8119  -17.7274   -3.3314 H         1 <0>         0.1293
     59 H20         5.6025  -19.6951   -4.5787 H         1 <0>         0.1263
     60 H21         6.8313  -19.4105   -6.6910 H         1 <0>         0.1284
     61 H22         7.2673  -17.1547   -7.5708 H         1 <0>         0.1298
     62 H23         5.0050   -4.4667   -5.4647 H         1 <0>         0.1247
     63 H24         6.1658   -5.1505   -7.5230 H         1 <0>         0.1260
     64 H25         5.5163   -4.1781   -9.6875 H         1 <0>         0.1238
     65 H26         3.7033   -2.5193   -9.8062 H         1 <0>         0.1260
     66 H27         2.5236   -1.8318   -7.7599 H         1 <0>         0.1244
@<TRIPOS>BOND
     1    1    2 1
     2    1   41 1
     3    1   42 1
     4    1   43 1
     5    2    3 1
     6    3   12 ar
     7    3    4 ar
     8    4    5 ar
     9    5    6 ar
    10    5   44 1
    11    6   11 ar
    12    6    7 ar
    13    7    8 ar
    14    7   45 1
    15    8    9 ar
    16    8   35 1
    17    9   10 ar
    18    9   13 1
    19   10   11 ar
    20   11   12 ar
    21   13   18 ar
    22   13   14 ar
    23   14   15 ar
    24   14   46 1
    25   15   16 ar
    26   15   47 1
    27   16   17 ar
    28   16   19 1
    29   17   18 ar
    30   17   48 1
    31   18   49 1
    32   19   20 1
    33   19   50 1
    34   19   51 1
    35   20   21 1
    36   20   52 1
    37   21   22 1
    38   21   53 1
    39   21   54 1
    40   22   55 1
    41   22   56 1
    42   22   23 1
    43   23   24 2
    44   23   28 1
    45   24   25 1
    46   25   29 1
    47   25   26 2
    48   26   28 1
    49   27   28 1
    50   29   34 ar
    51   29   30 ar
    52   30   31 ar
    53   30   57 1
    54   31   32 ar
    55   31   58 1
    56   32   33 ar
    57   32   59 1
    58   33   34 ar
    59   33   60 1
    60   34   61 1
    61   35   40 ar
    62   35   36 ar
    63   36   37 ar
    64   36   62 1
    65   37   38 ar
    66   37   63 1
    67   38   39 ar
    68   38   64 1
    69   39   40 ar
    70   39   65 1
    71   40   66 1
@<TRIPOS>MOLECULE
CHEMBL252455
   57    61     0     0     0
SMALL
USER_CHARGES

@<TRIPOS>ATOM
      1 C1         -0.0225    1.8097    0.0120 C.3       1 <0>        -0.1464
      2 S1          0.0021   -0.0041    0.0020 S.3       1 <0>         0.0183
      3 C2          0.8767   -0.4266    1.4721 C.ar      1 <0>         0.3225
      4 N1          1.3174    0.5551    2.2576 N.ar      1 <0>        -0.5342
      5 C3          1.9766    0.3014    3.3689 C.ar      1 <0>         0.2360
      6 C4          2.2114   -1.0411    3.7185 C.ar      1 <0>        -0.2316
      7 C5          2.9053   -1.3920    4.8864 C.ar      1 <0>        -0.0017
      8 C6          3.0909   -2.7406    5.1528 C.ar      1 <0>        -0.1017
      9 C7          2.5820   -3.7021    4.2518 C.ar      1 <0>         0.2700
     10 N2          1.9327   -3.3451    3.1593 N.ar      1 <0>        -0.4629
     11 C8          1.7278   -2.0628    2.8584 C.ar      1 <0>         0.3654
     12 N3          1.0636   -1.7028    1.7525 N.ar      1 <0>        -0.4822
     13 C9          2.7816   -5.1415    4.5386 C.ar      1 <0>        -0.0681
     14 C10         3.9528   -5.5760    5.1591 C.ar      1 <0>        -0.0768
     15 C11         4.1327   -6.9181    5.4241 C.ar      1 <0>        -0.1188
     16 C12         3.1545   -7.8322    5.0753 C.ar      1 <0>        -0.0607
     17 C13         1.9909   -7.4074    4.4592 C.ar      1 <0>        -0.1042
     18 C14         1.7967   -6.0672    4.1946 C.ar      1 <0>        -0.0678
     19 C15         3.3576   -9.2966    5.3671 C.3       1 <0>         0.0958
     20 N4          2.8280   -9.6080    6.7015 N.3       1 <0>        -0.6818
     21 C16         3.0090  -11.0304    7.0209 C.3       1 <0>         0.0629
     22 C17         2.4465  -11.3156    8.4149 C.3       1 <0>        -0.0154
     23 C18         2.6322  -12.7748    8.7426 C.2       1 <0>         0.0463
     24 N5          3.6351  -13.3878    9.3377 N.2       1 <0>        -0.2399
     25 N6          3.6370  -14.6327    9.5403 N.2       1 <0>        -0.3595
     26 C19         2.6250  -15.4036    9.1650 C.2       1 <0>         0.3375
     27 S2          1.5493  -14.1685    8.4414 S.3       1 <0>        -0.0529
     28 N7          2.4485  -16.7728    9.2992 N.pl3     1 <0>        -0.7844
     29 C20         3.8172   -3.1690    6.3720 C.ar      1 <0>        -0.0517
     30 C21         3.2649   -4.1343    7.2126 C.ar      1 <0>        -0.0872
     31 C22         3.9459   -4.5295    8.3460 C.ar      1 <0>        -0.1151
     32 C23         5.1740   -3.9694    8.6488 C.ar      1 <0>        -0.1096
     33 C24         5.7270   -3.0112    7.8184 C.ar      1 <0>        -0.1184
     34 C25         5.0579   -2.6123    6.6792 C.ar      1 <0>        -0.1072
     35 H1          1.0001    2.1870    0.0043 H         1 <0>         0.0911
     36 H2         -0.5497    2.1708   -0.8711 H         1 <0>         0.1141
     37 H3         -0.5327    2.1613    0.9088 H         1 <0>         0.0913
     38 H4          2.3293    1.1056    3.9977 H         1 <0>         0.1843
     39 H5          3.2838   -0.6351    5.5574 H         1 <0>         0.1544
     40 H6          4.7174   -4.8634    5.4312 H         1 <0>         0.1317
     41 H7          5.0391   -7.2558    5.9044 H         1 <0>         0.1246
     42 H8          1.2311   -8.1257    4.1890 H         1 <0>         0.1296
     43 H9          0.8860   -5.7362    3.7177 H         1 <0>         0.1315
     44 H10         2.8331   -9.8921    4.6199 H         1 <0>         0.0849
     45 H11         4.4220   -9.5292    5.3353 H         1 <0>         0.0443
     46 H12         3.2528   -9.0225    7.4048 H         1 <0>         0.3456
     47 H13         2.4820  -11.6379    6.2852 H         1 <0>         0.0786
     48 H14         4.0710  -11.2750    7.0006 H         1 <0>         0.0416
     49 H15         2.9734  -10.7080    9.1506 H         1 <0>         0.1027
     50 H16         1.3845  -11.0710    8.4352 H         1 <0>         0.1029
     51 H17         3.1340  -17.3108    9.7252 H         1 <0>         0.4228
     52 H18         1.6395  -17.1923    8.9669 H         1 <0>         0.4238
     53 H19         2.3059   -4.5717    6.9776 H         1 <0>         0.1246
     54 H20         3.5191   -5.2772    8.9980 H         1 <0>         0.1269
     55 H21         5.7030   -4.2813    9.5372 H         1 <0>         0.1245
     56 H22         6.6860   -2.5771    8.0600 H         1 <0>         0.1259
     57 H23         5.4926   -1.8673    6.0293 H         1 <0>         0.1241
@<TRIPOS>BOND
     1    1    2 1
     2    1   35 1
     3    1   36 1
     4    1   37 1
     5    2    3 1
     6    3   12 ar
     7    3    4 ar
     8    4    5 ar
     9    5    6 ar
    10    5   38 1
    11    6   11 ar
    12    6    7 ar
    13    7    8 ar
    14    7   39 1
    15    8    9 ar
    16    8   29 1
    17    9   10 ar
    18    9   13 1
    19   10   11 ar
    20   11   12 ar
    21   13   18 ar
    22   13   14 ar
    23   14   15 ar
    24   14   40 1
    25   15   16 ar
    26   15   41 1
    27   16   17 ar
    28   16   19 1
    29   17   18 ar
    30   17   42 1
    31   18   43 1
    32   19   20 1
    33   19   44 1
    34   19   45 1
    35   20   21 1
    36   20   46 1
    37   21   22 1
    38   21   47 1
    39   21   48 1
    40   22   23 1
    41   22   49 1
    42   22   50 1
    43   23   27 1
    44   23   24 2
    45   24   25 1
    46   25   26 2
    47   26   27 1
    48   26   28 1
    49   28   51 1
    50   28   52 1
    51   29   34 ar
    52   29   30 ar
    53   30   31 ar
    54   30   53 1
    55   31   32 ar
    56   31   54 1
    57   32   33 ar
    58   32   55 1
    59   33   34 ar
    60   33   56 1
    61   34   57 1
@<TRIPOS>MOLECULE
CHEMBL252455
   58    62     0     0     0
SMALL
USER_CHARGES

@<TRIPOS>ATOM
      1 C1         -0.0225    1.8097    0.0120 C.3       1 <0>        -0.1489
      2 S1          0.0021   -0.0041    0.0020 S.3       1 <0>         0.0301
      3 C2         -1.7016   -0.4536    0.0159 C.ar      1 <0>         0.3271
      4 N1         -2.6174    0.5141    0.0243 N.ar      1 <0>        -0.5276
      5 C3         -3.9053    0.2400    0.0344 C.ar      1 <0>         0.2400
      6 C4         -4.3044   -1.1092    0.0361 C.ar      1 <0>        -0.2284
      7 C5         -5.6573   -1.4815    0.0460 C.ar      1 <0>         0.0087
      8 C6         -5.9597   -2.8353    0.0465 C.ar      1 <0>        -0.1083
      9 C7         -4.9101   -3.7806    0.0372 C.ar      1 <0>         0.2459
     10 N2         -3.6450   -3.4035    0.0283 N.ar      1 <0>        -0.4556
     11 C8         -3.3020   -2.1154    0.0269 C.ar      1 <0>         0.3661
     12 N3         -2.0179   -1.7350    0.0120 N.ar      1 <0>        -0.4845
     13 C9         -5.2358   -5.2255    0.0378 C.ar      1 <0>        -0.0177
     14 C10        -6.3516   -5.6914    0.7329 C.ar      1 <0>        -0.0773
     15 C11        -6.6501   -7.0385    0.7294 C.ar      1 <0>        -0.0953
     16 C12        -5.8450   -7.9265    0.0386 C.ar      1 <0>        -0.1527
     17 C13        -4.7366   -7.4705   -0.6524 C.ar      1 <0>        -0.0962
     18 C14        -4.4313   -6.1249   -0.6615 C.ar      1 <0>        -0.0706
     19 C15        -6.1764   -9.3966    0.0392 C.3       1 <0>         0.0456
     20 N4         -7.0625   -9.6993   -1.0927 N.4       1 <0>        -0.5077
     21 C16        -7.3856  -11.1323   -1.0921 C.3       1 <0>        -0.0085
     22 C17        -8.3084  -11.4476   -2.2710 C.3       1 <0>        -0.0320
     23 C18        -8.6398  -12.9177   -2.2704 C.2       1 <0>        -0.0157
     24 N5         -9.6343  -13.5611   -1.6933 N.2       1 <0>        -0.2067
     25 N6         -9.7727  -14.8109   -1.7906 N.2       1 <0>        -0.3578
     26 C19        -8.9218  -15.5568   -2.4828 C.2       1 <0>         0.3632
     27 S2         -7.7990  -14.2870   -3.0602 S.3       1 <0>        -0.0301
     28 N7         -8.9085  -16.9264   -2.7011 N.pl3     1 <0>        -0.7699
     29 C20        -7.3718   -3.2860    0.0573 C.ar      1 <0>        -0.0514
     30 C21        -7.8088   -4.2401   -0.8605 C.ar      1 <0>        -0.0998
     31 C22        -9.1245   -4.6562   -0.8454 C.ar      1 <0>        -0.1199
     32 C23       -10.0092   -4.1282    0.0777 C.ar      1 <0>        -0.1085
     33 C24        -9.5813   -3.1812    0.9908 C.ar      1 <0>        -0.1116
     34 C25        -8.2666   -2.7617    0.9890 C.ar      1 <0>        -0.1033
     35 H1          1.0001    2.1870    0.0043 H         1 <0>         0.1178
     36 H2         -0.5497    2.1708   -0.8711 H         1 <0>         0.0934
     37 H3         -0.5327    2.1613    0.9088 H         1 <0>         0.0934
     38 H4         -4.6386    1.0328    0.0415 H         1 <0>         0.1881
     39 H5         -6.4393   -0.7367    0.0534 H         1 <0>         0.1579
     40 H6         -6.9805   -4.9992    1.2732 H         1 <0>         0.1446
     41 H7         -7.5139   -7.4005    1.2673 H         1 <0>         0.1373
     42 H8         -4.1117   -8.1686   -1.1895 H         1 <0>         0.1374
     43 H9         -3.5683   -5.7695   -1.2049 H         1 <0>         0.1437
     44 H10        -5.2579   -9.9762   -0.0533 H         1 <0>         0.1408
     45 H11        -6.6772   -9.6558    0.9721 H         1 <0>         0.1413
     46 H12        -7.9127   -9.1628   -1.0071 H         1 <0>         0.4301
     47 H13        -6.4671  -11.7119   -1.1846 H         1 <0>         0.1370
     48 H14        -7.8863  -11.3915   -0.1593 H         1 <0>         0.1418
     49 H15        -9.2269  -10.8680   -2.1785 H         1 <0>         0.1228
     50 H16        -7.8077  -11.1884   -3.2038 H         1 <0>         0.1127
     51 H17        -9.6013  -17.4856   -2.3160 H         1 <0>         0.4299
     52 H18        -8.2064  -17.3251   -3.2387 H         1 <0>         0.4297
     53 H19        -7.1192   -4.6525   -1.5821 H         1 <0>         0.1207
     54 H20        -9.4642   -5.3953   -1.5559 H         1 <0>         0.1241
     55 H21       -11.0381   -4.4564    0.0854 H         1 <0>         0.1271
     56 H22       -10.2765   -2.7723    1.7090 H         1 <0>         0.1305
     57 H23        -7.9325   -2.0256    1.7052 H         1 <0>         0.1282
     58 H24        -6.5989   -9.4594   -1.9562 H         1 <0>         0.4289
@<TRIPOS>BOND
     1    1    2 1
     2    1   35 1
     3    1   36 1
     4    1   37 1
     5    2    3 1
     6    3   12 ar
     7    3    4 ar
     8    4    5 ar
     9    5    6 ar
    10    5   38 1
    11    6   11 ar
    12    6    7 ar
    13    7    8 ar
    14    7   39 1
    15    8    9 ar
    16    8   29 1
    17    9   10 ar
    18    9   13 1
    19   10   11 ar
    20   11   12 ar
    21   13   18 ar
    22   13   14 ar
    23   14   15 ar
    24   14   40 1
    25   15   16 ar
    26   15   41 1
    27   16   17 ar
    28   16   19 1
    29   17   18 ar
    30   17   42 1
    31   18   43 1
    32   19   20 1
    33   19   44 1
    34   19   45 1
    35   20   21 1
    36   20   46 1
    37   20   58 1
    38   21   22 1
    39   21   47 1
    40   21   48 1
    41   22   23 1
    42   22   49 1
    43   22   50 1
    44   23   27 1
    45   23   24 2
    46   24   25 1
    47   25   26 2
    48   26   27 1
    49   26   28 1
    50   28   51 1
    51   28   52 1
    52   29   34 ar
    53   29   30 ar
    54   30   31 ar
    55   30   53 1
    56   31   32 ar
    57   31   54 1
    58   32   33 ar
    59   32   55 1
    60   33   34 ar
    61   33   56 1
    62   34   57 1
@<TRIPOS>MOLECULE
CHEMBL252456
   65    69     0     0     0
SMALL
USER_CHARGES

@<TRIPOS>ATOM
      1 C1         -0.2785    1.7018   -0.0944 C.3       1 <0>        -0.1489
      2 S1         -0.2235   -0.1114   -0.0922 S.3       1 <0>         0.0305
      3 C2          0.6571   -0.5093    1.3812 C.ar      1 <0>         0.3272
      4 N1          1.0807    0.4849    2.1603 N.ar      1 <0>        -0.5275
      5 C3          1.7433    0.2497    3.2737 C.ar      1 <0>         0.2401
      6 C4          2.0003   -1.0862    3.6324 C.ar      1 <0>        -0.2285
      7 C5          2.6993   -1.4177    4.8031 C.ar      1 <0>         0.0090
      8 C6          2.9073   -2.7611    5.0787 C.ar      1 <0>        -0.1089
      9 C7          2.4152   -3.7371    4.1838 C.ar      1 <0>         0.2461
     10 N2          1.7608   -3.3983    3.0886 N.ar      1 <0>        -0.4555
     11 C8          1.5346   -2.1216    2.7790 C.ar      1 <0>         0.3663
     12 N3          0.8652   -1.7803    1.6703 N.ar      1 <0>        -0.4845
     13 C9          2.6388   -5.1709    4.4804 C.ar      1 <0>        -0.0178
     14 C10         3.8166   -5.5815    5.1044 C.ar      1 <0>        -0.0772
     15 C11         4.0188   -6.9186    5.3786 C.ar      1 <0>        -0.0959
     16 C12         3.0564   -7.8513    5.0353 C.ar      1 <0>        -0.1525
     17 C13         1.8863   -7.4502    4.4158 C.ar      1 <0>        -0.0963
     18 C14         1.6697   -6.1153    4.1420 C.ar      1 <0>        -0.0702
     19 C15         3.2838   -9.3101    5.3371 C.3       1 <0>         0.0453
     20 N4          2.7585   -9.6214    6.6732 N.4       1 <0>        -0.5084
     21 C16         2.9802  -11.0435    6.9674 C.3       1 <0>        -0.0013
     22 C17         2.4331  -11.3677    8.3590 C.3       1 <0>        -0.1960
     23 C18         2.6605  -12.8266    8.6608 C.2       1 <0>         0.4201
     24 O1          3.2066  -13.5372    7.8431 O.2       1 <0>        -0.4727
     25 C19         2.2217  -13.3872    9.9429 C.ar      1 <0>        -0.2802
     26 C20         1.7009  -12.5500   10.9376 C.ar      1 <0>        -0.0268
     27 C21         1.2908  -13.0836   12.1380 C.ar      1 <0>        -0.1913
     28 C22         1.3898  -14.4475   12.3700 C.ar      1 <0>        -0.0218
     29 C23         1.9002  -15.2869   11.4018 C.ar      1 <0>        -0.2130
     30 C24         2.3154  -14.7705   10.1804 C.ar      1 <0>         0.2904
     31 N5          2.8236  -15.6132    9.2031 N.pl3     1 <0>        -0.8495
     32 C25         3.6398   -3.1691    6.3011 C.ar      1 <0>        -0.0507
     33 C26         3.1032   -4.1379    7.1479 C.ar      1 <0>        -0.0998
     34 C27         3.7900   -4.5140    8.2842 C.ar      1 <0>        -0.1202
     35 C28         5.0083   -3.9314    8.5840 C.ar      1 <0>        -0.1089
     36 C29         5.5457   -2.9695    7.7475 C.ar      1 <0>        -0.1115
     37 C30         4.8708   -2.5896    6.6053 C.ar      1 <0>        -0.1031
     38 H1          0.7376    2.0961   -0.1041 H         1 <0>         0.0934
     39 H2         -0.8110    2.0480   -0.9802 H         1 <0>         0.1178
     40 H3         -0.7951    2.0507    0.7997 H         1 <0>         0.0934
     41 H4          2.0820    1.0639    3.8973 H         1 <0>         0.1882
     42 H5          3.0646   -0.6500    5.4692 H         1 <0>         0.1579
     43 H6          4.5690   -4.8544    5.3722 H         1 <0>         0.1446
     44 H7          4.9305   -7.2378    5.8617 H         1 <0>         0.1365
     45 H8          1.1387   -8.1830    4.1499 H         1 <0>         0.1374
     46 H9          0.7539   -5.8028    3.6624 H         1 <0>         0.1440
     47 H10         2.7699   -9.9194    4.5936 H         1 <0>         0.1410
     48 H11         4.3520   -9.5251    5.3075 H         1 <0>         0.1407
     49 H12         3.2343   -9.0575    7.3614 H         1 <0>         0.4275
     50 H13         2.4663  -11.6528    6.2239 H         1 <0>         0.1399
     51 H14         4.0484  -11.2584    6.9378 H         1 <0>         0.1400
     52 H15         2.9470  -10.7585    9.1024 H         1 <0>         0.1230
     53 H16         1.3649  -11.1528    8.3885 H         1 <0>         0.1236
     54 H17         1.6216  -11.4871   10.7629 H         1 <0>         0.1262
     55 H18         0.8897  -12.4365   12.9040 H         1 <0>         0.1297
     56 H19         1.0652  -14.8552   13.3160 H         1 <0>         0.1327
     57 H20         1.9738  -16.3475   11.5919 H         1 <0>         0.1326
     58 H21         3.1882  -15.2422    8.3844 H         1 <0>         0.4141
     59 H22         2.8144  -16.5737    9.3383 H         1 <0>         0.4017
     60 H23         2.1518   -4.5929    6.9152 H         1 <0>         0.1206
     61 H24         3.3753   -5.2644    8.9410 H         1 <0>         0.1235
     62 H25         5.5419   -4.2283    9.4748 H         1 <0>         0.1269
     63 H26         6.4971   -2.5178    7.9868 H         1 <0>         0.1306
     64 H27         5.2934   -1.8418    5.9506 H         1 <0>         0.1284
     65 H28         1.7697   -9.4225    6.7006 H         1 <0>         0.4281
@<TRIPOS>BOND
     1    1    2 1
     2    1   38 1
     3    1   39 1
     4    1   40 1
     5    2    3 1
     6    3   12 ar
     7    3    4 ar
     8    4    5 ar
     9    5    6 ar
    10    5   41 1
    11    6   11 ar
    12    6    7 ar
    13    7    8 ar
    14    7   42 1
    15    8    9 ar
    16    8   32 1
    17    9   10 ar
    18    9   13 1
    19   10   11 ar
    20   11   12 ar
    21   13   18 ar
    22   13   14 ar
    23   14   15 ar
    24   14   43 1
    25   15   16 ar
    26   15   44 1
    27   16   17 ar
    28   16   19 1
    29   17   18 ar
    30   17   45 1
    31   18   46 1
    32   19   20 1
    33   19   47 1
    34   19   48 1
    35   20   21 1
    36   20   49 1
    37   20   65 1
    38   21   22 1
    39   21   50 1
    40   21   51 1
    41   22   23 1
    42   22   52 1
    43   22   53 1
    44   23   24 2
    45   23   25 1
    46   25   30 ar
    47   25   26 ar
    48   26   27 ar
    49   26   54 1
    50   27   28 ar
    51   27   55 1
    52   28   29 ar
    53   28   56 1
    54   29   30 ar
    55   29   57 1
    56   30   31 1
    57   31   58 1
    58   31   59 1
    59   32   37 ar
    60   32   33 ar
    61   33   34 ar
    62   33   60 1
    63   34   35 ar
    64   34   61 1
    65   35   36 ar
    66   35   62 1
    67   36   37 ar
    68   36   63 1
    69   37   64 1
@<TRIPOS>MOLECULE
CHEMBL252457
   62    66     0     0     0
SMALL
USER_CHARGES

@<TRIPOS>ATOM
      1 C1         -0.0225    1.8097    0.0120 C.3       1 <0>        -0.1489
      2 S1          0.0021   -0.0041    0.0020 S.3       1 <0>         0.0302
      3 C2         -1.7016   -0.4536    0.0159 C.ar      1 <0>         0.3272
      4 N1         -2.6174    0.5141    0.0243 N.ar      1 <0>        -0.5276
      5 C3         -3.9053    0.2400    0.0344 C.ar      1 <0>         0.2401
      6 C4         -4.3044   -1.1092    0.0361 C.ar      1 <0>        -0.2285
      7 C5         -5.6573   -1.4815    0.0460 C.ar      1 <0>         0.0089
      8 C6         -5.9597   -2.8353    0.0465 C.ar      1 <0>        -0.1088
      9 C7         -4.9101   -3.7806    0.0372 C.ar      1 <0>         0.2466
     10 N2         -3.6450   -3.4035    0.0283 N.ar      1 <0>        -0.4557
     11 C8         -3.3020   -2.1154    0.0269 C.ar      1 <0>         0.3663
     12 N3         -2.0179   -1.7350    0.0120 N.ar      1 <0>        -0.4844
     13 C9         -5.2358   -5.2255    0.0378 C.ar      1 <0>        -0.0194
     14 C10        -6.3516   -5.6914    0.7329 C.ar      1 <0>        -0.0759
     15 C11        -6.6501   -7.0385    0.7294 C.ar      1 <0>        -0.1015
     16 C12        -5.8450   -7.9265    0.0386 C.ar      1 <0>        -0.1466
     17 C13        -4.7366   -7.4705   -0.6524 C.ar      1 <0>        -0.0971
     18 C14        -4.4313   -6.1249   -0.6615 C.ar      1 <0>        -0.0683
     19 C15        -6.1764   -9.3966    0.0392 C.3       1 <0>         0.0430
     20 N4         -7.0625   -9.6993   -1.0927 N.4       1 <0>        -0.3836
     21 C16        -8.3422   -9.0041   -0.9099 C.3       1 <0>        -0.0141
     22 C17        -9.2390   -9.2504   -2.1250 C.3       1 <0>        -0.1268
     23 C18        -9.4895  -10.7541   -2.2712 C.3       1 <0>        -0.1235
     24 C19        -8.1443  -11.4769   -2.3866 C.3       1 <0>        -0.1402
     25 C20        -7.2881  -11.1480   -1.1617 C.3       1 <0>        -0.0040
     26 C21       -10.3073  -11.0106   -3.5108 C.2       1 <0>         0.5200
     27 O1        -10.6563  -10.0829   -4.2097 O.2       1 <0>        -0.5284
     28 N5        -10.6508  -12.2709   -3.8427 N.am      1 <0>        -0.8497
     29 C22        -7.3718   -3.2860    0.0573 C.ar      1 <0>        -0.0505
     30 C23        -7.8088   -4.2401   -0.8605 C.ar      1 <0>        -0.0998
     31 C24        -9.1245   -4.6562   -0.8454 C.ar      1 <0>        -0.1210
     32 C25       -10.0092   -4.1282    0.0777 C.ar      1 <0>        -0.1084
     33 C26        -9.5813   -3.1812    0.9908 C.ar      1 <0>        -0.1115
     34 C27        -8.2666   -2.7617    0.9890 C.ar      1 <0>        -0.1030
     35 H1          1.0001    2.1870    0.0043 H         1 <0>         0.1178
     36 H2         -0.5497    2.1708   -0.8711 H         1 <0>         0.0934
     37 H3         -0.5327    2.1613    0.9088 H         1 <0>         0.0934
     38 H4         -4.6386    1.0328    0.0415 H         1 <0>         0.1881
     39 H5         -6.4393   -0.7367    0.0534 H         1 <0>         0.1578
     40 H6         -6.9805   -4.9992    1.2732 H         1 <0>         0.1448
     41 H7         -7.5139   -7.4005    1.2673 H         1 <0>         0.1360
     42 H8         -4.1117   -8.1686   -1.1895 H         1 <0>         0.1370
     43 H9         -3.5683   -5.7695   -1.2049 H         1 <0>         0.1439
     44 H10        -5.2579   -9.9762   -0.0533 H         1 <0>         0.1397
     45 H11        -6.6772   -9.6558    0.9721 H         1 <0>         0.1378
     46 H12        -8.8347   -9.3802   -0.0132 H         1 <0>         0.1312
     47 H13        -8.1621   -7.9344   -0.8028 H         1 <0>         0.1375
     48 H14       -10.1894   -8.7349   -1.9866 H         1 <0>         0.1196
     49 H15        -8.7475   -8.8744   -3.0223 H         1 <0>         0.0974
     50 H16       -10.0265  -11.1209   -1.3965 H         1 <0>         0.1175
     51 H17        -8.3122  -12.5528   -2.4351 H         1 <0>         0.1174
     52 H18        -7.6301  -11.1471   -3.2893 H         1 <0>         0.0959
     53 H19        -6.3297  -11.6612   -1.2406 H         1 <0>         0.1368
     54 H20        -7.8031  -11.4785   -0.2597 H         1 <0>         0.1333
     55 H21       -10.3717  -13.0129   -3.2837 H         1 <0>         0.4032
     56 H22       -11.1772  -12.4360   -4.6405 H         1 <0>         0.4118
     57 H23        -7.1192   -4.6525   -1.5821 H         1 <0>         0.1207
     58 H24        -9.4642   -5.3953   -1.5559 H         1 <0>         0.1240
     59 H25       -11.0381   -4.4564    0.0854 H         1 <0>         0.1269
     60 H26       -10.2765   -2.7723    1.7090 H         1 <0>         0.1304
     61 H27        -7.9325   -2.0256    1.7052 H         1 <0>         0.1282
     62 H28        -6.6312   -9.3859   -1.9493 H         1 <0>         0.4237
@<TRIPOS>BOND
     1    1    2 1
     2    1   35 1
     3    1   36 1
     4    1   37 1
     5    2    3 1
     6    3   12 ar
     7    3    4 ar
     8    4    5 ar
     9    5    6 ar
    10    5   38 1
    11    6   11 ar
    12    6    7 ar
    13    7    8 ar
    14    7   39 1
    15    8    9 ar
    16    8   29 1
    17    9   10 ar
    18    9   13 1
    19   10   11 ar
    20   11   12 ar
    21   13   18 ar
    22   13   14 ar
    23   14   15 ar
    24   14   40 1
    25   15   16 ar
    26   15   41 1
    27   16   17 ar
    28   16   19 1
    29   17   18 ar
    30   17   42 1
    31   18   43 1
    32   19   20 1
    33   19   44 1
    34   19   45 1
    35   20   25 1
    36   20   21 1
    37   20   62 1
    38   21   22 1
    39   21   46 1
    40   21   47 1
    41   22   23 1
    42   22   48 1
    43   22   49 1
    44   23   24 1
    45   23   26 1
    46   23   50 1
    47   24   25 1
    48   24   51 1
    49   24   52 1
    50   25   53 1
    51   25   54 1
    52   26   27 2
    53   26   28 am
    54   28   55 1
    55   28   56 1
    56   29   34 ar
    57   29   30 ar
    58   30   31 ar
    59   30   57 1
    60   31   32 ar
    61   31   58 1
    62   32   33 ar
    63   32   59 1
    64   33   34 ar
    65   33   60 1
    66   34   61 1
@<TRIPOS>MOLECULE
CHEMBL428963
   35    38     0     0     0
SMALL
USER_CHARGES

@<TRIPOS>ATOM
      1 C1          0.0359    2.3738    0.0146 C.3       1 <0>        -0.0629
      2 C2         -0.7792    2.5195   -1.2445 C.2       1 <0>         0.2334
      3 N1         -2.1048    2.4362   -1.3180 N.2       1 <0>        -0.5447
      4 H1         -1.3551    2.9707   -4.2748 H         1 <0>         0.4423
      5 C3         -2.4935    2.6111   -2.5655 C.2       1 <0>         0.3412
      6 N2         -1.3873    2.8131   -3.3183 N.pl3     1 <0>        -0.4763
      7 N3         -0.2957    2.7535   -2.4368 N.2       1 <0>        -0.3098
      8 C4         -3.8882    2.5900   -3.0545 C.ar      1 <0>        -0.0844
      9 C5         -4.1712    2.9160   -4.3809 C.ar      1 <0>        -0.0742
     10 C6         -5.4745    2.8946   -4.8318 C.ar      1 <0>        -0.1400
     11 C7         -6.5054    2.5508   -3.9735 C.ar      1 <0>        -0.0717
     12 C8         -6.2395    2.2262   -2.6578 C.ar      1 <0>        -0.1213
     13 C9         -4.9329    2.2367   -2.1895 C.ar      1 <0>         0.2185
     14 N4         -4.6616    1.9033   -0.8632 N.pl3     1 <0>        -0.6252
     15 C10        -5.5885    2.1865    0.1252 C.ar      1 <0>         0.4804
     16 C11        -5.3899    1.7500    1.4441 C.ar      1 <0>        -0.2512
     17 C12        -4.3516    0.9913    2.1387 C.2       1 <0>        -0.1626
     18 C13        -4.7348    0.8939    3.4223 C.2       1 <0>         0.0437
     19 N5         -5.9357    1.5313    3.5983 N.pl3     1 <0>        -0.5692
     20 H2         -6.4129    1.5960    4.4403 H         1 <0>         0.4234
     21 C14        -6.3617    2.0634    2.4124 C.ar      1 <0>         0.3412
     22 N6         -7.4321    2.7620    2.0372 N.ar      1 <0>        -0.5642
     23 C15        -7.5773    3.1502    0.7888 C.ar      1 <0>         0.3561
     24 N7         -6.6870    2.8837   -0.1499 N.ar      1 <0>        -0.5886
     25 H3          0.3052    1.3268    0.1540 H         1 <0>         0.0868
     26 H4          0.9420    2.9741   -0.0676 H         1 <0>         0.0841
     27 H5         -0.5498    2.7151    0.8682 H         1 <0>         0.0881
     28 H6         -3.3707    3.1852   -5.0541 H         1 <0>         0.1241
     29 H7         -5.6922    3.1476   -5.8590 H         1 <0>         0.1318
     30 H8         -7.5230    2.5366   -4.3349 H         1 <0>         0.1331
     31 H9         -7.0485    1.9597   -1.9938 H         1 <0>         0.1486
     32 H10        -3.8233    1.4730   -0.6331 H         1 <0>         0.4338
     33 H11        -3.4497    0.5868    1.7035 H         1 <0>         0.1522
     34 H12        -4.1802    0.3888    4.1993 H         1 <0>         0.1822
     35 H13        -8.4582    3.7149    0.5215 H         1 <0>         0.2013
@<TRIPOS>BOND
     1    1   25 1
     2    1   26 1
     3    1   27 1
     4    1    2 1
     5    2    3 1
     6    2    7 2
     7    3    5 2
     8    4    6 1
     9    5    8 1
    10    5    6 1
    11    6    7 1
    12    8   13 ar
    13    8    9 ar
    14    9   10 ar
    15    9   28 1
    16   10   11 ar
    17   10   29 1
    18   11   12 ar
    19   11   30 1
    20   12   13 ar
    21   12   31 1
    22   13   14 1
    23   14   15 1
    24   14   32 1
    25   15   24 ar
    26   15   16 ar
    27   16   21 ar
    28   16   17 1
    29   17   18 2
    30   17   33 1
    31   18   19 1
    32   18   34 1
    33   19   20 1
    34   19   21 1
    35   21   22 ar
    36   22   23 ar
    37   23   24 ar
    38   23   35 1
@<TRIPOS>MOLECULE
CHEMBL428963
   35    38     0     0     0
SMALL
USER_CHARGES

@<TRIPOS>ATOM
      1 C1         -0.6820    0.1466   -0.1838 C.3       1 <0>        -0.0805
      2 C2         -1.2601    0.8890   -1.3609 C.2       1 <0>         0.2933
      3 N1         -2.4383    1.4527   -1.4066 N.2       1 <0>        -0.5302
      4 H1          0.2365    0.7880   -2.7964 H         1 <0>         0.4422
      5 C3         -2.6221    2.0224   -2.6054 C.2       1 <0>         0.2845
      6 N2         -1.5477    1.8210   -3.3369 N.2       1 <0>        -0.3265
      7 N3         -0.6495    1.0901   -2.5424 N.pl3     1 <0>        -0.4801
      8 C4         -3.8360    2.7578   -3.0362 C.ar      1 <0>        -0.0593
      9 C5         -4.9512    2.8157   -2.2040 C.ar      1 <0>        -0.0529
     10 C6         -6.0783    3.5016   -2.6090 C.ar      1 <0>        -0.1448
     11 C7         -6.1062    4.1329   -3.8405 C.ar      1 <0>        -0.0788
     12 C8         -5.0066    4.0827   -4.6750 C.ar      1 <0>        -0.1233
     13 C9         -3.8642    3.4016   -4.2787 C.ar      1 <0>         0.1943
     14 N4         -2.7500    3.3542   -5.1180 N.pl3     1 <0>        -0.6308
     15 C10        -2.9172    3.3729   -6.4919 C.ar      1 <0>         0.4818
     16 C11        -1.8097    3.4498   -7.3505 C.ar      1 <0>        -0.2549
     17 C12        -0.3615    3.5243   -7.1686 C.2       1 <0>        -0.1651
     18 C13         0.1819    3.5781   -8.3957 C.2       1 <0>         0.0438
     19 N5         -0.8078    3.5435   -9.3438 N.pl3     1 <0>        -0.5692
     20 H2         -0.6610    3.5702  -10.3023 H         1 <0>         0.4235
     21 C14        -2.0325    3.4654   -8.7398 C.ar      1 <0>         0.3423
     22 N6         -3.2870    3.4069   -9.1841 N.ar      1 <0>        -0.5655
     23 C15        -4.2953    3.3361   -8.3423 C.ar      1 <0>         0.3573
     24 N7         -4.1310    3.3130   -7.0318 N.ar      1 <0>        -0.5857
     25 H3         -0.9475   -0.9083   -0.2536 H         1 <0>         0.0949
     26 H4          0.4031    0.2491   -0.1869 H         1 <0>         0.0854
     27 H5         -1.0836    0.5619    0.7406 H         1 <0>         0.1014
     28 H6         -4.9341    2.3240   -1.2426 H         1 <0>         0.1379
     29 H7         -6.9423    3.5456   -1.9625 H         1 <0>         0.1298
     30 H8         -6.9922    4.6670   -4.1506 H         1 <0>         0.1299
     31 H9         -5.0345    4.5773   -5.6347 H         1 <0>         0.1450
     32 H10        -1.8585    3.3080   -4.7385 H         1 <0>         0.4274
     33 H11         0.1697    3.5346   -6.2283 H         1 <0>         0.1493
     34 H12         1.2397    3.6399   -8.6043 H         1 <0>         0.1818
     35 H13        -5.2987    3.2905   -8.7391 H         1 <0>         0.2020
@<TRIPOS>BOND
     1    1   25 1
     2    1   26 1
     3    1   27 1
     4    1    2 1
     5    2    3 2
     6    2    7 1
     7    3    5 1
     8    4    7 1
     9    5    8 1
    10    5    6 2
    11    6    7 1
    12    8   13 ar
    13    8    9 ar
    14    9   10 ar
    15    9   28 1
    16   10   11 ar
    17   10   29 1
    18   11   12 ar
    19   11   30 1
    20   12   13 ar
    21   12   31 1
    22   13   14 1
    23   14   15 1
    24   14   32 1
    25   15   24 ar
    26   15   16 ar
    27   16   21 ar
    28   16   17 1
    29   17   18 2
    30   17   33 1
    31   18   19 1
    32   18   34 1
    33   19   20 1
    34   19   21 1
    35   21   22 ar
    36   22   23 ar
    37   23   24 ar
    38   23   35 1
@<TRIPOS>MOLECULE
CHEMBL252856
   71    76     0     0     0
SMALL
USER_CHARGES

@<TRIPOS>ATOM
      1 C1          0.0103    1.8098    0.0503 C.3       1 <0>        -0.1489
      2 S1          0.0357   -0.0040    0.0412 S.3       1 <0>         0.0304
      3 C2          0.8745   -0.4111   -1.4540 C.ar      1 <0>         0.3274
      4 N1          1.3052    0.5789   -2.2345 N.ar      1 <0>        -0.5275
      5 C3          1.9387    0.3369   -3.3633 C.ar      1 <0>         0.2402
      6 C4          2.1564   -1.0019   -3.7371 C.ar      1 <0>        -0.2285
      7 C5          2.8236   -1.3406   -4.9241 C.ar      1 <0>         0.0092
      8 C6          2.9945   -2.6864   -5.2134 C.ar      1 <0>        -0.1092
      9 C7          2.4979   -3.6574   -4.3158 C.ar      1 <0>         0.2462
     10 N2          1.8731   -3.3118   -3.2054 N.ar      1 <0>        -0.4556
     11 C8          1.6839   -2.0327   -2.8817 C.ar      1 <0>         0.3664
     12 N3          1.0549   -1.6842   -1.7518 N.ar      1 <0>        -0.4846
     13 C9          2.6817   -5.0937   -4.6272 C.ar      1 <0>        -0.0187
     14 C10         2.6379   -5.5347   -5.9496 C.ar      1 <0>        -0.0759
     15 C11         2.8103   -6.8739   -6.2334 C.ar      1 <0>        -0.1016
     16 C12         3.0258   -7.7788   -5.2093 C.ar      1 <0>        -0.1473
     17 C13         3.0698   -7.3476   -3.8955 C.ar      1 <0>        -0.0969
     18 C14         2.9051   -6.0100   -3.5996 C.ar      1 <0>        -0.0683
     19 C15         3.2128   -9.2402   -5.5261 C.3       1 <0>         0.0431
     20 N4          4.6396   -9.5160   -5.7407 N.4       1 <0>        -0.3840
     21 C16         5.1035   -8.7900   -6.9290 C.3       1 <0>        -0.0140
     22 C17         6.6071   -9.0089   -7.1106 C.3       1 <0>        -0.1267
     23 C18         6.8821  -10.5053   -7.2850 C.3       1 <0>        -0.1192
     24 C19         6.3276  -11.2608   -6.0738 C.3       1 <0>        -0.1425
     25 C20         4.8344  -10.9584   -5.9307 C.3       1 <0>        -0.0034
     26 C21         8.3678  -10.7362   -7.3861 C.2       1 <0>         0.5182
     27 O1          9.1330   -9.7972   -7.3248 O.2       1 <0>        -0.5008
     28 N5          8.8463  -11.9861   -7.5446 N.am      1 <0>        -0.6659
     29 C22        10.2134  -12.1909   -7.7357 C.ar      1 <0>         0.1752
     30 C23        11.1535  -11.3844   -7.0962 C.ar      1 <0>        -0.1745
     31 C24        12.4956  -11.6194   -7.3116 C.ar      1 <0>         0.1205
     32 N6         12.8924  -12.5921   -8.1103 N.ar      1 <0>        -0.4880
     33 C25        12.0336  -13.3768   -8.7335 C.ar      1 <0>         0.1224
     34 C26        10.6743  -13.2109   -8.5665 C.ar      1 <0>        -0.1964
     35 C27         3.6916   -3.1019   -6.4539 C.ar      1 <0>        -0.0503
     36 C28         4.7205   -4.0410   -6.3973 C.ar      1 <0>        -0.0999
     37 C29         5.3655   -4.4243   -7.5555 C.ar      1 <0>        -0.1211
     38 C30         4.9934   -3.8784   -8.7708 C.ar      1 <0>        -0.1085
     39 C31         3.9733   -2.9461   -8.8331 C.ar      1 <0>        -0.1113
     40 C32         3.3171   -2.5594   -7.6823 C.ar      1 <0>        -0.1029
     41 H1          1.0326    2.1875    0.0370 H         1 <0>         0.0935
     42 H2         -0.5217    2.1701   -0.8303 H         1 <0>         0.0935
     43 H3         -0.4954    2.1615    0.9495 H         1 <0>         0.1179
     44 H4          2.2830    1.1477   -3.9882 H         1 <0>         0.1882
     45 H5          3.1926   -0.5766   -5.5924 H         1 <0>         0.1579
     46 H6          2.4690   -4.8293   -6.7499 H         1 <0>         0.1449
     47 H7          2.7766   -7.2166   -7.2571 H         1 <0>         0.1360
     48 H8          3.2381   -8.0587   -3.1003 H         1 <0>         0.1370
     49 H9          2.9441   -5.6739   -2.5739 H         1 <0>         0.1441
     50 H10         2.8475   -9.8420   -4.6940 H         1 <0>         0.1401
     51 H11         2.6547   -9.4907   -6.4282 H         1 <0>         0.1381
     52 H12         4.5745   -9.1575   -7.8083 H         1 <0>         0.1321
     53 H13         4.9042   -7.7256   -6.8048 H         1 <0>         0.1388
     54 H14         6.9492   -8.4705   -7.9944 H         1 <0>         0.1210
     55 H15         7.1371   -8.6414   -6.2319 H         1 <0>         0.0989
     56 H16         6.3940  -10.8623   -8.1919 H         1 <0>         0.1216
     57 H17         6.4700  -12.3319   -6.2166 H         1 <0>         0.1176
     58 H18         6.8519  -10.9400   -5.1736 H         1 <0>         0.0978
     59 H19         4.4365  -11.4949   -5.0694 H         1 <0>         0.1382
     60 H20         4.3112  -11.2797   -6.8313 H         1 <0>         0.1344
     61 H21         8.2404  -12.7434   -7.5258 H         1 <0>         0.4143
     62 H22        10.8355  -10.5865   -6.4416 H         1 <0>         0.1474
     63 H23        13.2310  -10.9993   -6.8206 H         1 <0>         0.1626
     64 H24        12.3996  -14.1616   -9.3788 H         1 <0>         0.1641
     65 H25         9.9769  -13.8595   -9.0758 H         1 <0>         0.1396
     66 H26         5.0123   -4.4673   -5.4489 H         1 <0>         0.1206
     67 H27         6.1627   -5.1517   -7.5129 H         1 <0>         0.1236
     68 H28         5.5015   -4.1808   -9.6745 H         1 <0>         0.1267
     69 H29         3.6872   -2.5230   -9.7847 H         1 <0>         0.1305
     70 H30         2.5178   -1.8348   -7.7327 H         1 <0>         0.1284
     71 H31         5.1651   -9.2099   -4.9356 H         1 <0>         0.4240
@<TRIPOS>BOND
     1    1    2 1
     2    1   41 1
     3    1   42 1
     4    1   43 1
     5    2    3 1
     6    3   12 ar
     7    3    4 ar
     8    4    5 ar
     9    5    6 ar
    10    5   44 1
    11    6   11 ar
    12    6    7 ar
    13    7    8 ar
    14    7   45 1
    15    8    9 ar
    16    8   35 1
    17    9   10 ar
    18    9   13 1
    19   10   11 ar
    20   11   12 ar
    21   13   18 ar
    22   13   14 ar
    23   14   15 ar
    24   14   46 1
    25   15   16 ar
    26   15   47 1
    27   16   17 ar
    28   16   19 1
    29   17   18 ar
    30   17   48 1
    31   18   49 1
    32   19   20 1
    33   19   50 1
    34   19   51 1
    35   20   25 1
    36   20   21 1
    37   20   71 1
    38   21   22 1
    39   21   52 1
    40   21   53 1
    41   22   23 1
    42   22   54 1
    43   22   55 1
    44   23   24 1
    45   23   26 1
    46   23   56 1
    47   24   25 1
    48   24   57 1
    49   24   58 1
    50   25   59 1
    51   25   60 1
    52   26   27 2
    53   26   28 am
    54   28   29 1
    55   28   61 1
    56   29   34 ar
    57   29   30 ar
    58   30   31 ar
    59   30   62 1
    60   31   32 ar
    61   31   63 1
    62   32   33 ar
    63   33   34 ar
    64   33   64 1
    65   34   65 1
    66   35   40 ar
    67   35   36 ar
    68   36   37 ar
    69   36   66 1
    70   37   38 ar
    71   37   67 1
    72   38   39 ar
    73   38   68 1
    74   39   40 ar
    75   39   69 1
    76   40   70 1
@<TRIPOS>MOLECULE
CHEMBL270157
   69    75     0     0     0
SMALL
USER_CHARGES

@<TRIPOS>ATOM
      1 C1         -0.0167    1.3791    0.0096 C.ar      1 <0>        -0.1144
      2 C2          1.1686    2.0923    0.0021 C.ar      1 <0>        -0.1115
      3 C3          2.3774    1.4267   -0.0129 C.ar      1 <0>        -0.1079
      4 C4          2.4025    0.0330   -0.0206 C.ar      1 <0>        -0.0355
      5 C5          1.2049   -0.6804   -0.0130 C.ar      1 <0>        -0.1038
      6 C6          0.0021   -0.0041    0.0020 C.ar      1 <0>        -0.1215
      7 C7          3.6980   -0.6879   -0.0373 C.ar      1 <0>        -0.1413
      8 C8          4.6810   -0.3482   -0.9598 C.ar      1 <0>         0.0311
      9 C9          5.8838   -1.0591   -0.9319 C.ar      1 <0>        -0.2309
     10 C10         7.1185   -0.9980   -1.7151 C.2       1 <0>         0.3749
     11 N1          7.9263   -1.9125   -1.2477 N.2       1 <0>        -0.2981
     12 N2          7.3180   -2.5959   -0.1909 N.pl3     1 <0>        -0.4820
     13 H1          7.7212   -3.3181    0.3157 H         1 <0>         0.4484
     14 C11         6.0644   -2.0866    0.0177 C.ar      1 <0>         0.3451
     15 N3          5.0990   -2.3778    0.8796 N.ar      1 <0>        -0.4940
     16 C12         3.9510   -1.7220    0.8852 C.ar      1 <0>         0.2379
     17 C13         2.9100   -2.0854    1.8747 C.ar      1 <0>        -0.0088
     18 C14         2.0809   -1.1012    2.4120 C.ar      1 <0>        -0.0792
     19 C15         1.1131   -1.4458    3.3333 C.ar      1 <0>        -0.1011
     20 C16         0.9648   -2.7644    3.7244 C.ar      1 <0>        -0.1512
     21 C17         1.7846   -3.7452    3.1953 C.ar      1 <0>        -0.0965
     22 C18         2.7515   -3.4138    2.2682 C.ar      1 <0>        -0.0745
     23 C19        -0.0937   -3.1340    4.7314 C.3       1 <0>         0.0437
     24 N4         -1.3442   -3.4568    4.0312 N.4       1 <0>        -0.3850
     25 C20        -1.8458   -2.2570    3.3505 C.3       1 <0>        -0.0069
     26 C21        -3.1042   -2.6069    2.5533 C.3       1 <0>        -0.1646
     27 C22        -4.1759   -3.1391    3.5091 C.3       1 <0>         0.1609
     28 C23        -3.6154   -4.3455    4.2679 C.3       1 <0>        -0.1669
     29 C24        -2.3381   -3.9312    5.0016 C.3       1 <0>         0.0010
     30 N5         -5.3563   -3.5472    2.7434 N.am      1 <0>        -0.5372
     31 C25        -6.6387   -3.0213    2.8805 C.ar      1 <0>         0.0797
     32 C26        -7.1828   -2.0406    3.6960 C.ar      1 <0>        -0.1044
     33 C27        -8.5253   -1.7319    3.5978 C.ar      1 <0>        -0.1028
     34 C28        -9.3301   -2.3976    2.6890 C.ar      1 <0>        -0.0991
     35 C29        -8.7973   -3.3761    1.8729 C.ar      1 <0>        -0.1001
     36 C30        -7.4503   -3.6923    1.9636 C.ar      1 <0>         0.0915
     37 N6         -6.6357   -4.6052    1.2978 N.am      1 <0>        -0.6396
     38 H2         -6.9202   -5.2165    0.6005 H         1 <0>         0.4396
     39 C31        -5.3851   -4.4905    1.7831 C.2       1 <0>         0.6857
     40 O1         -4.4270   -5.1427    1.4125 O.2       1 <0>        -0.5576
     41 N7          7.3847   -0.1222   -2.7703 N.pl3     1 <0>        -0.8266
     42 H3         -0.9603    1.9042    0.0260 H         1 <0>         0.1241
     43 H4          1.1479    3.1721    0.0077 H         1 <0>         0.1282
     44 H5          3.3022    1.9845   -0.0191 H         1 <0>         0.1268
     45 H6          1.2184   -1.7603   -0.0193 H         1 <0>         0.1193
     46 H7         -0.9264   -0.5557    0.0079 H         1 <0>         0.1200
     47 H8          4.5195    0.4423   -1.6778 H         1 <0>         0.1449
     48 H9          2.1963   -0.0713    2.1080 H         1 <0>         0.1444
     49 H10         0.4705   -0.6845    3.7501 H         1 <0>         0.1345
     50 H11         1.6645   -4.7728    3.5050 H         1 <0>         0.1351
     51 H12         3.3878   -4.1810    1.8522 H         1 <0>         0.1416
     52 H13         0.2363   -4.0008    5.3039 H         1 <0>         0.1394
     53 H14        -0.2616   -2.2950    5.4066 H         1 <0>         0.1376
     54 H15        -2.0856   -1.4935    4.0905 H         1 <0>         0.1326
     55 H16        -1.0809   -1.8776    2.6730 H         1 <0>         0.1397
     56 H17        -3.4762   -1.7144    2.0501 H         1 <0>         0.1168
     57 H18        -2.8655   -3.3703    1.8128 H         1 <0>         0.1069
     58 H19        -4.4519   -2.3586    4.2182 H         1 <0>         0.1149
     59 H20        -4.3528   -4.6957    4.9903 H         1 <0>         0.1178
     60 H21        -3.3873   -5.1449    3.5630 H         1 <0>         0.1075
     61 H22        -1.9366   -4.7878    5.5430 H         1 <0>         0.1385
     62 H23        -2.5674   -3.1320    5.7064 H         1 <0>         0.1334
     63 H24        -6.5582   -1.5197    4.4066 H         1 <0>         0.1289
     64 H25        -8.9493   -0.9681    4.2329 H         1 <0>         0.1386
     65 H26       -10.3791   -2.1509    2.6182 H         1 <0>         0.1398
     66 H27        -9.4283   -3.8937    1.1657 H         1 <0>         0.1366
     67 H28         6.7157    0.5245   -3.0444 H         1 <0>         0.4150
     68 H29         8.2385   -0.1608   -3.2290 H         1 <0>         0.4144
     69 H30        -1.1696   -4.1798    3.3493 H         1 <0>         0.4261
@<TRIPOS>BOND
     1    1    6 ar
     2    1    2 ar
     3    1   42 1
     4    2    3 ar
     5    2   43 1
     6    3    4 ar
     7    3   44 1
     8    4    5 ar
     9    4    7 1
    10    5    6 ar
    11    5   45 1
    12    6   46 1
    13    7   16 ar
    14    7    8 ar
    15    8    9 ar
    16    8   47 1
    17    9   14 ar
    18    9   10 1
    19   10   11 2
    20   10   41 1
    21   11   12 1
    22   12   13 1
    23   12   14 1
    24   14   15 ar
    25   15   16 ar
    26   16   17 1
    27   17   22 ar
    28   17   18 ar
    29   18   19 ar
    30   18   48 1
    31   19   20 ar
    32   19   49 1
    33   20   21 ar
    34   20   23 1
    35   21   22 ar
    36   21   50 1
    37   22   51 1
    38   23   24 1
    39   23   52 1
    40   23   53 1
    41   24   29 1
    42   24   25 1
    43   24   69 1
    44   25   26 1
    45   25   54 1
    46   25   55 1
    47   26   27 1
    48   26   56 1
    49   26   57 1
    50   27   28 1
    51   27   30 1
    52   27   58 1
    53   28   29 1
    54   28   59 1
    55   28   60 1
    56   29   61 1
    57   29   62 1
    58   30   39 am
    59   30   31 1
    60   31   36 ar
    61   31   32 ar
    62   32   33 ar
    63   32   63 1
    64   33   34 ar
    65   33   64 1
    66   34   35 ar
    67   34   65 1
    68   35   36 ar
    69   35   66 1
    70   36   37 1
    71   37   38 1
    72   37   39 am
    73   39   40 2
    74   41   67 1
    75   41   68 1
@<TRIPOS>MOLECULE
CHEMBL270157
   69    75     0     0     0
SMALL
USER_CHARGES

@<TRIPOS>ATOM
      1 C1         -0.0167    1.3792    0.0096 C.ar      1 <0>        -0.1193
      2 C2          1.1686    2.0926    0.0021 C.ar      1 <0>        -0.1118
      3 C3          2.3774    1.4273   -0.0134 C.ar      1 <0>        -0.1131
      4 C4          2.4027    0.0331   -0.0211 C.ar      1 <0>        -0.0257
      5 C5          1.2048   -0.6804   -0.0130 C.ar      1 <0>        -0.1069
      6 C6          0.0021   -0.0041    0.0020 C.ar      1 <0>        -0.1214
      7 C7          3.6976   -0.6873   -0.0382 C.ar      1 <0>        -0.1751
      8 C8          4.6688   -0.3404   -0.9618 C.ar      1 <0>         0.0590
      9 C9          5.8820   -1.0485   -0.9431 C.ar      1 <0>        -0.3143
     10 C10         7.0606   -0.9958   -1.6864 C.2       1 <0>         0.4294
     11 N1          7.8868   -1.9376   -1.2021 N.pl3     1 <0>        -0.4480
     12 N2          7.2717   -2.6162   -0.1453 N.2       1 <0>        -0.2931
     13 H1          8.7788   -2.1205   -1.5365 H         1 <0>         0.4483
     14 C11         6.0642   -2.1197    0.0506 C.ar      1 <0>         0.3060
     15 N3          5.0724   -2.3943    0.9126 N.ar      1 <0>        -0.4679
     16 C12         3.9407   -1.7233    0.8922 C.ar      1 <0>         0.2652
     17 C13         2.8851   -2.0684    1.8728 C.ar      1 <0>        -0.0102
     18 C14         2.0614   -1.0714    2.3946 C.ar      1 <0>        -0.0778
     19 C15         1.0796   -1.3990    3.3072 C.ar      1 <0>        -0.1030
     20 C16         0.9118   -2.7134    3.7049 C.ar      1 <0>        -0.1522
     21 C17         1.7262   -3.7067    3.1912 C.ar      1 <0>        -0.0976
     22 C18         2.7074   -3.3923    2.2733 C.ar      1 <0>        -0.0724
     23 C19        -0.1620   -3.0644    4.7023 C.3       1 <0>         0.0441
     24 N4         -1.4082   -3.3775    3.9903 N.4       1 <0>        -0.3850
     25 C20        -1.8885   -2.1765    3.2964 C.3       1 <0>        -0.0069
     26 C21        -3.1419   -2.5172    2.4875 C.3       1 <0>        -0.1646
     27 C22        -4.2301   -3.0310    3.4346 C.3       1 <0>         0.1608
     28 C23        -3.6919   -4.2388    4.2072 C.3       1 <0>        -0.1668
     29 C24        -2.4181   -3.8343    4.9525 C.3       1 <0>         0.0011
     30 N5         -5.4065   -3.4306    2.6583 N.am      1 <0>        -0.5371
     31 C25        -6.6843   -2.8893    2.7778 C.ar      1 <0>         0.0800
     32 C26        -7.2262   -1.8973    3.5809 C.ar      1 <0>        -0.1044
     33 C27        -8.5639   -1.5740    3.4658 C.ar      1 <0>        -0.1030
     34 C28        -9.3661   -2.2364    2.5523 C.ar      1 <0>        -0.0994
     35 C29        -8.8354   -3.2261    1.7484 C.ar      1 <0>        -0.1003
     36 C30        -7.4932   -3.5570    1.8562 C.ar      1 <0>         0.0915
     37 N6         -6.6818   -4.4834    1.2053 N.am      1 <0>        -0.6398
     38 H2         -6.9655   -5.0959    0.5087 H         1 <0>         0.4395
     39 C31        -5.4354   -4.3797    1.7038 C.2       1 <0>         0.6856
     40 O1         -4.4808   -5.0452    1.3480 O.2       1 <0>        -0.5571
     41 N7          7.3296   -0.1315   -2.7326 N.pl3     1 <0>        -0.8281
     42 H3         -0.9603    1.9042    0.0260 H         1 <0>         0.1222
     43 H4          1.1477    3.1724    0.0081 H         1 <0>         0.1260
     44 H5          3.3021    1.9853   -0.0199 H         1 <0>         0.1248
     45 H6          1.2182   -1.7603   -0.0192 H         1 <0>         0.1190
     46 H7         -0.9264   -0.5557    0.0079 H         1 <0>         0.1183
     47 H8          4.4987    0.4514   -1.6762 H         1 <0>         0.1351
     48 H9          2.1919   -0.0449    2.0853 H         1 <0>         0.1445
     49 H10         0.4410   -0.6278    3.7120 H         1 <0>         0.1333
     50 H11         1.5910   -4.7309    3.5060 H         1 <0>         0.1345
     51 H12         3.3396   -4.1692    1.8694 H         1 <0>         0.1430
     52 H13         0.1517   -3.9312    5.2840 H         1 <0>         0.1391
     53 H14        -0.3277   -2.2192    5.3703 H         1 <0>         0.1370
     54 H15        -2.1277   -1.4055    4.0289 H         1 <0>         0.1322
     55 H16        -1.1118   -1.8102    2.6252 H         1 <0>         0.1403
     56 H17        -3.4980   -1.6238    1.9745 H         1 <0>         0.1165
     57 H18        -2.9037   -3.2880    1.7545 H         1 <0>         0.1069
     58 H19        -4.5050   -2.2429    4.1356 H         1 <0>         0.1148
     59 H20        -4.4412   -4.5759    4.9235 H         1 <0>         0.1174
     60 H21        -3.4651   -5.0453    3.5099 H         1 <0>         0.1074
     61 H22        -2.0324   -4.6919    5.5038 H         1 <0>         0.1383
     62 H23        -2.6461   -3.0280    5.6496 H         1 <0>         0.1331
     63 H24        -6.6036   -1.3790    4.2951 H         1 <0>         0.1290
     64 H25        -8.9861   -0.8014    4.0913 H         1 <0>         0.1384
     65 H26       -10.4114   -1.9782    2.4682 H         1 <0>         0.1396
     66 H27        -9.4645   -3.7411    1.0375 H         1 <0>         0.1364
     67 H28         6.6634    0.5167   -3.0097 H         1 <0>         0.4248
     68 H29         8.1845   -0.1737   -3.1890 H         1 <0>         0.4130
     69 H30        -1.2343   -4.1067    3.3150 H         1 <0>         0.4262
@<TRIPOS>BOND
     1    1    6 ar
     2    1    2 ar
     3    1   42 1
     4    2    3 ar
     5    2   43 1
     6    3    4 ar
     7    3   44 1
     8    4    5 ar
     9    4    7 1
    10    5    6 ar
    11    5   45 1
    12    6   46 1
    13    7   16 ar
    14    7    8 ar
    15    8    9 ar
    16    8   47 1
    17    9   14 ar
    18    9   10 2
    19   10   41 1
    20   10   11 1
    21   11   13 1
    22   11   12 1
    23   12   14 2
    24   14   15 ar
    25   15   16 ar
    26   16   17 1
    27   17   22 ar
    28   17   18 ar
    29   18   19 ar
    30   18   48 1
    31   19   20 ar
    32   19   49 1
    33   20   21 ar
    34   20   23 1
    35   21   22 ar
    36   21   50 1
    37   22   51 1
    38   23   24 1
    39   23   52 1
    40   23   53 1
    41   24   29 1
    42   24   25 1
    43   24   69 1
    44   25   26 1
    45   25   54 1
    46   25   55 1
    47   26   27 1
    48   26   56 1
    49   26   57 1
    50   27   28 1
    51   27   30 1
    52   27   58 1
    53   28   29 1
    54   28   59 1
    55   28   60 1
    56   29   61 1
    57   29   62 1
    58   30   39 am
    59   30   31 1
    60   31   36 ar
    61   31   32 ar
    62   32   33 ar
    63   32   63 1
    64   33   34 ar
    65   33   64 1
    66   34   35 ar
    67   34   65 1
    68   35   36 ar
    69   35   66 1
    70   36   37 1
    71   37   38 1
    72   37   39 am
    73   39   40 2
    74   41   67 1
    75   41   68 1
@<TRIPOS>MOLECULE
CHEMBL259833
   31    34     0     0     0
SMALL
USER_CHARGES

@<TRIPOS>ATOM
      1 C1          2.4245   -0.5703    3.2811 C.2       1 <0>         0.0941
      2 C2          3.1747    0.3048    2.5906 C.2       1 <0>        -0.1017
      3 C3          3.0162   -0.0269    1.1755 C.ar      1 <0>        -0.1940
      4 C4          2.1412   -1.1280    1.1252 C.ar      1 <0>         0.3371
      5 N1          1.8012   -1.4329    2.4143 N.pl3     1 <0>        -0.5605
      6 H1          1.2066   -2.1527    2.6774 H         1 <0>         0.4359
      7 N2          1.8254   -1.6363   -0.0649 N.ar      1 <0>        -0.5186
      8 C5          2.3207   -1.1200   -1.1688 C.ar      1 <0>         0.3368
      9 N3          3.1445   -0.0875   -1.1671 N.ar      1 <0>        -0.5436
     10 C6          3.5187    0.4890   -0.0285 C.ar      1 <0>         0.4716
     11 N4          4.3813    1.5703   -0.0314 N.pl3     1 <0>        -0.6492
     12 C7          5.8360    1.3749    0.0580 C.3       1 <0>         0.1475
     13 C8          6.4915    1.8692   -1.2375 C.3       1 <0>        -0.0790
     14 C9          5.8988    3.2070   -1.6034 C.2       1 <0>         0.0462
     15 C10         4.7340    3.6842   -1.1146 C.2       1 <0>         0.0392
     16 N5          4.5315    4.9065   -1.6758 N.pl3     1 <0>        -0.4977
     17 H2          3.7765    5.4953   -1.5203 H         1 <0>         0.4660
     18 C11         5.5838    5.1449   -2.4926 C.cat     1 <0>         0.2978
     19 N6          6.3962    4.1219   -2.4415 N.pl3     1 <0>        -0.4681
     20 C12         3.8662    2.9484   -0.1303 C.3       1 <0>         0.2130
     21 Cl1         4.1450    1.5836    3.2516 Cl        1 <0>        -0.0244
     22 H3          2.3299   -0.5943    4.3567 H         1 <0>         0.1976
     23 H4          2.0425   -1.5586   -2.1157 H         1 <0>         0.2083
     24 H5          6.2282    1.9403    0.9033 H         1 <0>         0.0834
     25 H6          6.0535    0.3156    0.1949 H         1 <0>         0.0997
     26 H7          7.5658    1.9749   -1.0860 H         1 <0>         0.1090
     27 H8          6.3023    1.1545   -2.0384 H         1 <0>         0.1106
     28 H9          5.7284    6.0337   -3.0890 H         1 <0>         0.2679
     29 H10         2.8351    2.9347   -0.4833 H         1 <0>         0.1067
     30 H11         3.9196    3.4352    0.8435 H         1 <0>         0.1034
     31 H12         7.2281    4.0398   -2.9335 H         1 <0>         0.4646
@<TRIPOS>BOND
     1    1    5 1
     2    1    2 2
     3    1   22 1
     4    2    3 1
     5    2   21 1
     6    3   10 ar
     7    3    4 ar
     8    4    5 1
     9    4    7 ar
    10    5    6 1
    11    7    8 ar
    12    8    9 ar
    13    8   23 1
    14    9   10 ar
    15   10   11 1
    16   11   20 1
    17   11   12 1
    18   12   13 1
    19   12   24 1
    20   12   25 1
    21   13   14 1
    22   13   26 1
    23   13   27 1
    24   14   19 1
    25   14   15 2
    26   15   16 1
    27   15   20 1
    28   16   17 1
    29   16   18 1
    30   18   19 2
    31   18   28 1
    32   19   31 1
    33   20   29 1
    34   20   30 1
@<TRIPOS>MOLECULE
CHEMBL1096634
   59    62     0     0     0
SMALL
USER_CHARGES

@<TRIPOS>ATOM
      1 C1         -0.0187    1.5258    0.0104 C.3       1 <0>        -0.1701
      2 C2          0.0021   -0.0041    0.0020 C.3       1 <0>         0.0941
      3 N1         -1.3723   -0.5112    0.0124 N.pl3     1 <0>        -0.4545
      4 C3         -2.1306   -0.7949    1.1239 C.ar      1 <0>         0.1289
      5 C4         -1.9266   -0.7240    2.4962 C.ar      1 <0>        -0.1674
      6 C5         -2.9506   -1.1045    3.3495 C.ar      1 <0>         0.3252
      7 N2         -4.1132   -1.5318    2.8817 N.ar      1 <0>        -0.5221
      8 C6         -4.3629   -1.6197    1.5811 C.ar      1 <0>         0.3703
      9 C7         -3.3756   -1.2525    0.6462 C.ar      1 <0>         0.0060
     10 N3         -3.3205   -1.2274   -0.6974 N.2       1 <0>        -0.4322
     11 C8         -2.1480   -0.7870   -1.0846 C.2       1 <0>         0.3447
     12 C9         -1.7245   -0.6168   -2.4913 C.2       1 <0>         0.1276
     13 C10        -2.5428   -0.9012   -3.6771 C.2       1 <0>         0.3636
     14 N4         -1.8342   -0.6306   -4.7384 N.2       1 <0>        -0.3415
     15 O1         -0.5640   -0.1726   -4.3106 O.3       1 <0>         0.0523
     16 N5         -0.5581   -0.1814   -2.8940 N.2       1 <0>        -0.2443
     17 N6         -3.8474   -1.3768   -3.6698 N.pl3     1 <0>        -0.8016
     18 C11        -5.6377   -2.0889    1.1279 C.1       1 <0>        -0.1370
     19 C12        -6.6828   -2.4736    0.7563 C.1       1 <0>        -0.1025
     20 C13        -7.9932   -2.9559    0.2904 C.3       1 <0>         0.2373
     21 C14        -8.0204   -2.9609   -1.2393 C.3       1 <0>        -0.1412
     22 C15        -8.2278   -4.3760    0.8093 C.3       1 <0>        -0.1758
     23 O2         -9.0207   -2.0932    0.7823 O.3       1 <0>        -0.5412
     24 O3         -2.7574   -1.0381    4.6914 O.3       1 <0>        -0.3141
     25 C16        -3.8460   -1.4422    5.5243 C.3       1 <0>         0.0467
     26 C17        -3.4442   -1.2994    6.9937 C.3       1 <0>         0.0942
     27 H1         -3.1089   -0.2793    7.1812 H         1 <0>         0.1595
     28 C18        -4.6301   -1.6076    7.8710 C.ar      1 <0>        -0.1528
     29 C19        -4.9728   -2.9208    8.1337 C.ar      1 <0>        -0.1175
     30 C20        -6.0606   -3.2035    8.9384 C.ar      1 <0>        -0.1042
     31 C21        -6.8055   -2.1731    9.4808 C.ar      1 <0>        -0.0841
     32 C22        -6.4623   -0.8599    9.2189 C.ar      1 <0>        -0.1051
     33 C23        -5.3719   -0.5771    8.4176 C.ar      1 <0>        -0.0807
     34 N7         -2.3543   -2.2365    7.2967 N.4       1 <0>        -0.6353
     35 H2          1.0039    1.9031    0.0027 H         1 <0>         0.0910
     36 H3         -0.5459    1.8868   -0.8726 H         1 <0>         0.0667
     37 H4         -0.5289    1.8773    0.9072 H         1 <0>         0.0642
     38 H5          0.5123   -0.3556   -0.8948 H         1 <0>         0.1137
     39 H6          0.5293   -0.3651    0.8851 H         1 <0>         0.1030
     40 H7         -0.9835   -0.3778    2.8925 H         1 <0>         0.1525
     41 H8         -4.2958   -1.5500   -2.8273 H         1 <0>         0.4293
     42 H9         -4.3104   -1.5358   -4.5072 H         1 <0>         0.4213
     43 H10        -7.2366   -3.6189   -1.6145 H         1 <0>         0.0783
     44 H11        -8.9907   -3.3180   -1.5843 H         1 <0>         0.0804
     45 H12        -7.8532   -1.9492   -1.6090 H         1 <0>         0.0708
     46 H13        -8.2085   -4.3724    1.8991 H         1 <0>         0.0632
     47 H14        -9.1982   -4.7331    0.4643 H         1 <0>         0.0828
     48 H15        -7.4441   -5.0340    0.4341 H         1 <0>         0.0737
     49 H16        -9.0623   -2.0412    1.7470 H         1 <0>         0.3820
     50 H17        -4.7120   -0.8122    5.3215 H         1 <0>         0.1174
     51 H18        -4.0965   -2.4823    5.3156 H         1 <0>         0.0955
     52 H19        -4.3908   -3.7259    7.7099 H         1 <0>         0.1216
     53 H20        -6.3287   -4.2295    9.1431 H         1 <0>         0.1378
     54 H21        -7.6558   -2.3940   10.1089 H         1 <0>         0.1383
     55 H22        -7.0445   -0.0548    9.6423 H         1 <0>         0.1398
     56 H23        -5.1015    0.4489    8.2160 H         1 <0>         0.1368
     57 H24        -1.5602   -2.0301    6.7093 H         1 <0>         0.4427
     58 H25        -2.0893   -2.1423    8.2657 H         1 <0>         0.4408
     59 H26        -2.6646   -3.1808    7.1231 H         1 <0>         0.4312
@<TRIPOS>BOND
     1    1    2 1
     2    1   35 1
     3    1   36 1
     4    1   37 1
     5    2    3 1
     6    2   38 1
     7    2   39 1
     8    3   11 1
     9    3    4 1
    10    4    9 ar
    11    4    5 ar
    12    5    6 ar
    13    5   40 1
    14    6    7 ar
    15    6   24 1
    16    7    8 ar
    17    8    9 ar
    18    8   18 1
    19    9   10 1
    20   10   11 2
    21   11   12 1
    22   12   16 2
    23   12   13 1
    24   13   14 2
    25   13   17 1
    26   14   15 1
    27   15   16 1
    28   17   41 1
    29   17   42 1
    30   18   19 3
    31   19   20 1
    32   20   21 1
    33   20   22 1
    34   20   23 1
    35   21   43 1
    36   21   44 1
    37   21   45 1
    38   22   46 1
    39   22   47 1
    40   22   48 1
    41   23   49 1
    42   24   25 1
    43   25   26 1
    44   25   50 1
    45   25   51 1
    46   26   27 1
    47   26   28 1
    48   26   34 1
    49   28   33 ar
    50   28   29 ar
    51   29   30 ar
    52   29   52 1
    53   30   31 ar
    54   30   53 1
    55   31   32 ar
    56   31   54 1
    57   32   33 ar
    58   32   55 1
    59   33   56 1
    60   34   57 1
    61   34   58 1
    62   34   59 1
@<TRIPOS>MOLECULE
CHEMBL1096634
   58    61     0     0     0
SMALL
USER_CHARGES

@<TRIPOS>ATOM
      1 C1         -0.0187    1.5258    0.0104 C.3       1 <0>        -0.1690
      2 C2          0.0021   -0.0041    0.0020 C.3       1 <0>         0.0960
      3 N1         -1.3723   -0.5112    0.0124 N.pl3     1 <0>        -0.4577
      4 C3         -2.1306   -0.7949    1.1239 C.ar      1 <0>         0.1351
      5 C4         -1.9266   -0.7240    2.4962 C.ar      1 <0>        -0.1819
      6 C5         -2.9506   -1.1045    3.3495 C.ar      1 <0>         0.3429
      7 N2         -4.1132   -1.5318    2.8817 N.ar      1 <0>        -0.5164
      8 C6         -4.3629   -1.6197    1.5811 C.ar      1 <0>         0.3605
      9 C7         -3.3756   -1.2525    0.6462 C.ar      1 <0>        -0.0066
     10 N3         -3.3205   -1.2274   -0.6974 N.2       1 <0>        -0.4303
     11 C8         -2.1480   -0.7870   -1.0846 C.2       1 <0>         0.3266
     12 C9         -1.7245   -0.6168   -2.4913 C.2       1 <0>         0.1370
     13 C10        -2.5428   -0.9012   -3.6771 C.2       1 <0>         0.3645
     14 N4         -1.8342   -0.6306   -4.7384 N.2       1 <0>        -0.3486
     15 O1         -0.5640   -0.1726   -4.3106 O.3       1 <0>         0.0444
     16 N5         -0.5581   -0.1814   -2.8940 N.2       1 <0>        -0.2483
     17 N6         -3.8474   -1.3768   -3.6698 N.pl3     1 <0>        -0.8014
     18 C11        -5.6377   -2.0889    1.1279 C.1       1 <0>        -0.1188
     19 C12        -6.6828   -2.4736    0.7563 C.1       1 <0>        -0.1237
     20 C13        -7.9932   -2.9559    0.2904 C.3       1 <0>         0.2412
     21 C14        -8.0204   -2.9609   -1.2393 C.3       1 <0>        -0.1387
     22 C15        -8.2278   -4.3760    0.8093 C.3       1 <0>        -0.1759
     23 O2         -9.0207   -2.0932    0.7823 O.3       1 <0>        -0.5448
     24 O3         -2.7574   -1.0381    4.6914 O.3       1 <0>        -0.2966
     25 C16        -3.8460   -1.4422    5.5243 C.3       1 <0>         0.0384
     26 C17        -3.4442   -1.2994    6.9937 C.3       1 <0>         0.1373
     27 H1         -3.1089   -0.2793    7.1812 H         1 <0>         0.1010
     28 C18        -4.6301   -1.6076    7.8710 C.ar      1 <0>        -0.0776
     29 C19        -4.9728   -2.9208    8.1337 C.ar      1 <0>        -0.1021
     30 C20        -6.0606   -3.2035    8.9384 C.ar      1 <0>        -0.1186
     31 C21        -6.8055   -2.1731    9.4808 C.ar      1 <0>        -0.1164
     32 C22        -6.4623   -0.8599    9.2189 C.ar      1 <0>        -0.1179
     33 C23        -5.3719   -0.5771    8.4176 C.ar      1 <0>        -0.1079
     34 N7         -2.3543   -2.2365    7.2967 N.3       1 <0>        -0.8349
     35 H2          1.0039    1.9031    0.0027 H         1 <0>         0.0877
     36 H3         -0.5459    1.8868   -0.8726 H         1 <0>         0.0641
     37 H4         -0.5289    1.8773    0.9072 H         1 <0>         0.0653
     38 H5          0.5123   -0.3556   -0.8948 H         1 <0>         0.1100
     39 H6          0.5293   -0.3651    0.8851 H         1 <0>         0.1027
     40 H7         -0.9835   -0.3778    2.8925 H         1 <0>         0.1515
     41 H8         -4.2958   -1.5500   -2.8273 H         1 <0>         0.4306
     42 H9         -4.3104   -1.5358   -4.5072 H         1 <0>         0.4192
     43 H10        -7.2366   -3.6189   -1.6145 H         1 <0>         0.0771
     44 H11        -8.9907   -3.3180   -1.5843 H         1 <0>         0.0771
     45 H12        -7.8532   -1.9492   -1.6090 H         1 <0>         0.0695
     46 H13        -8.2085   -4.3724    1.8991 H         1 <0>         0.0649
     47 H14        -9.1982   -4.7331    0.4643 H         1 <0>         0.0797
     48 H15        -7.4441   -5.0340    0.4341 H         1 <0>         0.0729
     49 H16        -9.0623   -2.0412    1.7470 H         1 <0>         0.3836
     50 H17        -4.7120   -0.8122    5.3215 H         1 <0>         0.0761
     51 H18        -4.0965   -2.4823    5.3156 H         1 <0>         0.0711
     52 H19        -4.3908   -3.7259    7.7099 H         1 <0>         0.1195
     53 H20        -6.3287   -4.2295    9.1431 H         1 <0>         0.1235
     54 H21        -7.6558   -2.3940   10.1089 H         1 <0>         0.1232
     55 H22        -7.0445   -0.0548    9.6423 H         1 <0>         0.1245
     56 H23        -5.1015    0.4489    8.2160 H         1 <0>         0.1234
     57 H24        -2.6404   -3.1897    7.1307 H         1 <0>         0.3406
     58 H25        -1.5254   -2.0104    6.7675 H         1 <0>         0.3514
@<TRIPOS>BOND
     1    1    2 1
     2    1   35 1
     3    1   36 1
     4    1   37 1
     5    2    3 1
     6    2   38 1
     7    2   39 1
     8    3   11 1
     9    3    4 1
    10    4    9 ar
    11    4    5 ar
    12    5    6 ar
    13    5   40 1
    14    6    7 ar
    15    6   24 1
    16    7    8 ar
    17    8    9 ar
    18    8   18 1
    19    9   10 1
    20   10   11 2
    21   11   12 1
    22   12   16 2
    23   12   13 1
    24   13   14 2
    25   13   17 1
    26   14   15 1
    27   15   16 1
    28   17   41 1
    29   17   42 1
    30   18   19 3
    31   19   20 1
    32   20   21 1
    33   20   22 1
    34   20   23 1
    35   21   43 1
    36   21   44 1
    37   21   45 1
    38   22   46 1
    39   22   47 1
    40   22   48 1
    41   23   49 1
    42   24   25 1
    43   25   26 1
    44   25   50 1
    45   25   51 1
    46   26   27 1
    47   26   28 1
    48   26   34 1
    49   28   33 ar
    50   28   29 ar
    51   29   30 ar
    52   29   52 1
    53   30   31 ar
    54   30   53 1
    55   31   32 ar
    56   31   54 1
    57   32   33 ar
    58   32   55 1
    59   33   56 1
    60   34   57 1
    61   34   58 1
@<TRIPOS>MOLECULE
CHEMBL1173304
   45    48     0     0     0
SMALL
USER_CHARGES

@<TRIPOS>ATOM
      1 C1         -3.1668    0.2304    2.9250 C.3       1 <0>        -0.0794
      2 C2         -2.5729   -1.0580    2.4166 C.2       1 <0>        -0.1339
      3 C3         -3.2461   -2.1638    2.0592 C.2       1 <0>         0.0504
      4 N1         -2.3657   -3.1312    1.6485 N.pl3     1 <0>        -0.5714
      5 H1         -2.6158   -4.0171    1.3426 H         1 <0>         0.4241
      6 C4         -1.0831   -2.6637    1.7330 C.ar      1 <0>         0.3229
      7 C5         -1.1538   -1.3423    2.2117 C.ar      1 <0>        -0.2035
      8 C6          0.0392   -0.6247    2.3856 C.ar      1 <0>         0.4986
      9 N2          1.1868   -1.2263    2.0859 N.ar      1 <0>        -0.5530
     10 C7          1.2075   -2.4678    1.6358 C.ar      1 <0>         0.3285
     11 N3          0.1150   -3.1806    1.4654 N.ar      1 <0>        -0.5360
     12 N4          0.0222    0.6759    2.8563 N.pl3     1 <0>        -0.6685
     13 C8         -0.1783    1.8841    2.0357 C.3       1 <0>         0.1377
     14 C9         -0.7248    2.9468    3.0215 C.3       1 <0>        -0.1422
     15 C10         0.0777    2.6197    4.3085 C.3       1 <0>         0.1553
     16 H2         -0.4719    2.9338    5.1959 H         1 <0>         0.1098
     17 C11         0.1948    1.0818    4.2588 C.3       1 <0>         0.1312
     18 N5          1.3994    3.2503    4.2695 N.am      1 <0>        -0.7313
     19 C12         1.5544    4.5177    4.7009 C.2       1 <0>         0.7060
     20 O1          0.5973    5.1377    5.1226 O.2       1 <0>        -0.5678
     21 N6          2.7704    5.0978    4.6650 N.am      1 <0>        -0.6842
     22 C13         2.9577    6.3656    5.2270 C.ar      1 <0>         0.1660
     23 C14         3.9668    7.1942    4.7541 C.ar      1 <0>        -0.1539
     24 C15         4.1488    8.4451    5.3105 C.ar      1 <0>        -0.0983
     25 C16         3.3274    8.8728    6.3375 C.ar      1 <0>        -0.1412
     26 C17         2.3220    8.0499    6.8109 C.ar      1 <0>        -0.0989
     27 C18         2.1312    6.8001    6.2549 C.ar      1 <0>        -0.1295
     28 H3         -3.2964    0.9236    2.0938 H         1 <0>         0.0658
     29 H4         -4.1346    0.0282    3.3838 H         1 <0>         0.0649
     30 H5         -2.4988    0.6713    3.6650 H         1 <0>         0.0705
     31 H6         -4.3199   -2.2743    2.0906 H         1 <0>         0.1828
     32 H7          2.1612   -2.9188    1.4044 H         1 <0>         0.2007
     33 H8          0.7687    2.2142    1.6088 H         1 <0>         0.0533
     34 H9         -0.9042    1.6902    1.2461 H         1 <0>         0.0649
     35 H10        -0.5057    3.9550    2.6701 H         1 <0>         0.0869
     36 H11        -1.7946    2.8153    3.1841 H         1 <0>         0.0892
     37 H12        -0.5826    0.6289    4.8742 H         1 <0>         0.0719
     38 H13         1.1782    0.7752    4.6152 H         1 <0>         0.0627
     39 H14         2.1630    2.7556    3.9331 H         1 <0>         0.4007
     40 H15         3.5158    4.6365    4.2496 H         1 <0>         0.4075
     41 H16         4.6088    6.8606    3.9523 H         1 <0>         0.1236
     42 H17         4.9336    9.0899    4.9434 H         1 <0>         0.1254
     43 H18         3.4717    9.8514    6.7709 H         1 <0>         0.1222
     44 H19         1.6824    8.3866    7.6134 H         1 <0>         0.1248
     45 H20         1.3427    6.1598    6.6218 H         1 <0>         0.1444
@<TRIPOS>BOND
     1    1    2 1
     2    1   28 1
     3    1   29 1
     4    1   30 1
     5    2    7 1
     6    2    3 2
     7    3    4 1
     8    3   31 1
     9    4    5 1
    10    4    6 1
    11    6   11 ar
    12    6    7 ar
    13    7    8 ar
    14    8    9 ar
    15    8   12 1
    16    9   10 ar
    17   10   11 ar
    18   10   32 1
    19   12   17 1
    20   12   13 1
    21   13   14 1
    22   13   33 1
    23   13   34 1
    24   14   15 1
    25   14   35 1
    26   14   36 1
    27   15   16 1
    28   15   17 1
    29   15   18 1
    30   17   37 1
    31   17   38 1
    32   18   19 am
    33   18   39 1
    34   19   20 2
    35   19   21 am
    36   21   22 1
    37   21   40 1
    38   22   27 ar
    39   22   23 ar
    40   23   24 ar
    41   23   41 1
    42   24   25 ar
    43   24   42 1
    44   25   26 ar
    45   25   43 1
    46   26   27 ar
    47   26   44 1
    48   27   45 1
@<TRIPOS>MOLECULE
CHEMBL470409
   35    37     0     0     0
SMALL
USER_CHARGES

@<TRIPOS>ATOM
      1 C1         -0.2011    0.7877   -1.7735 C.2       1 <0>        -0.2094
      2 C2          1.0307    1.0169   -2.2602 C.2       1 <0>         0.0845
      3 N1          1.9240    0.1502   -1.6910 N.pl3     1 <0>        -0.5775
      4 H1          2.8741    0.1236   -1.8845 H         1 <0>         0.4265
      5 C3          1.2763   -0.6769   -0.8042 C.ar      1 <0>         0.2902
      6 C4         -0.0823   -0.3115   -0.8193 C.ar      1 <0>        -0.1260
      7 C5         -0.9922   -1.0029    0.0055 C.ar      1 <0>         0.0419
      8 C6         -0.4906   -2.0319    0.8084 C.ar      1 <0>        -0.1501
      9 C7          0.8590   -2.3265    0.7623 C.ar      1 <0>         0.1427
     10 N2          1.6874   -1.6634   -0.0182 N.ar      1 <0>        -0.4785
     11 C8         -2.4246   -0.6527    0.0215 C.2       1 <0>        -0.0272
     12 C9         -3.5275   -1.4903   -0.0615 C.2       1 <0>        -0.1396
     13 C10        -4.7765   -0.9367   -0.0262 C.2       1 <0>        -0.0312
     14 C11        -4.8916    0.4412    0.0913 C.2       1 <0>        -0.2508
     15 S1         -3.1840    0.9570    0.1604 S.3       1 <0>         0.1571
     16 C12        -6.1045    1.2621    0.1495 C.2       1 <0>         0.6207
     17 O1         -7.1998    0.7345    0.0929 O.2       1 <0>        -0.5046
     18 N3         -6.0068    2.6013    0.2658 N.am      1 <0>        -0.7316
     19 C13        -7.2190    3.4218    0.3241 C.3       1 <0>         0.0938
     20 C14        -6.8312    4.8961    0.4549 C.3       1 <0>        -0.0211
     21 N4         -8.0468    5.7189    0.5134 N.4       1 <0>        -0.6312
     22 Br1        -3.3069   -3.3616   -0.2210 Br        1 <0>        -0.0017
     23 H2         -1.1050    1.3181   -2.0346 H         1 <0>         0.1495
     24 H3          1.2785    1.7721   -2.9914 H         1 <0>         0.1848
     25 H4         -1.1498   -2.5896    1.4571 H         1 <0>         0.1465
     26 H5          1.2448   -3.1215    1.3832 H         1 <0>         0.1731
     27 H6         -5.6567   -1.5594   -0.0888 H         1 <0>         0.1602
     28 H7         -5.1338    3.0218    0.3109 H         1 <0>         0.4080
     29 H8         -7.7991    3.2783   -0.5875 H         1 <0>         0.0952
     30 H9         -7.8172    3.1256    1.1858 H         1 <0>         0.0952
     31 H10        -6.2511    5.0396    1.3665 H         1 <0>         0.1430
     32 H11        -6.2330    5.1923   -0.4068 H         1 <0>         0.1430
     33 H12        -8.5837    5.5860   -0.3305 H         1 <0>         0.4398
     34 H13        -8.6005    5.4447    1.3110 H         1 <0>         0.4398
     35 H14        -7.7910    6.6911    0.5997 H         1 <0>         0.4451
@<TRIPOS>BOND
     1    1    6 1
     2    1    2 2
     3    1   23 1
     4    2    3 1
     5    2   24 1
     6    3    4 1
     7    3    5 1
     8    5   10 ar
     9    5    6 ar
    10    6    7 ar
    11    7    8 ar
    12    7   11 1
    13    8    9 ar
    14    8   25 1
    15    9   10 ar
    16    9   26 1
    17   11   15 1
    18   11   12 2
    19   12   13 1
    20   12   22 1
    21   13   14 2
    22   13   27 1
    23   14   15 1
    24   14   16 1
    25   16   17 2
    26   16   18 am
    27   18   19 1
    28   18   28 1
    29   19   20 1
    30   19   29 1
    31   19   30 1
    32   20   21 1
    33   20   31 1
    34   20   32 1
    35   21   33 1
    36   21   34 1
    37   21   35 1
@<TRIPOS>MOLECULE
CHEMBL573393
   53    57     0     0     0
SMALL
USER_CHARGES

@<TRIPOS>ATOM
      1 C1         -0.0165    1.3620    0.0095 C.ar      1 <0>        -0.1190
      2 C2          1.1697    2.0834    0.0021 C.ar      1 <0>        -0.0931
      3 C3          2.3856    1.4362   -0.0134 C.ar      1 <0>        -0.1109
      4 C4          2.4281    0.0456   -0.0212 C.ar      1 <0>         0.0986
      5 C5          1.2234   -0.6807   -0.0132 C.ar      1 <0>        -0.1171
      6 C6          0.0021   -0.0041    0.0020 C.ar      1 <0>        -0.1142
      7 C7          1.6036   -2.0953   -0.0245 C.2       1 <0>        -0.2379
      8 C8          2.9451   -2.1410   -0.0380 C.2       1 <0>         0.1041
      9 N1          3.4551   -0.8713   -0.0363 N.pl3     1 <0>        -0.5843
     10 H1          4.3995   -0.6501   -0.0442 H         1 <0>         0.4266
     11 C9          0.6664   -3.2754   -0.0210 C.3       1 <0>        -0.0554
     12 C10         0.2361   -3.5891   -1.4554 C.3       1 <0>         0.0434
     13 H2          1.1200   -3.7379   -2.0756 H         1 <0>         0.1531
     14 C11        -0.6144   -4.8610   -1.4661 C.3       1 <0>         0.0261
     15 O1         -0.9189   -5.2190   -2.8156 O.3       1 <0>        -0.3221
     16 C12        -1.6731   -6.3340   -3.0030 C.ar      1 <0>         0.0696
     17 C13        -2.0063   -6.7503   -4.2858 C.ar      1 <0>        -0.0943
     18 C14        -2.7829   -7.9026   -4.4264 C.ar      1 <0>        -0.0424
     19 C15        -3.1908   -8.5858   -3.2821 C.ar      1 <0>         0.0868
     20 N2         -2.8519   -8.1548   -2.0846 N.ar      1 <0>        -0.4382
     21 C16        -2.1151   -7.0742   -1.9153 C.ar      1 <0>         0.0220
     22 C17        -3.1681   -8.3916   -5.7731 C.ar      1 <0>        -0.0589
     23 C18        -2.7441   -7.6942   -6.9157 C.ar      1 <0>        -0.0926
     24 C19        -3.0827   -8.1204   -8.1597 C.ar      1 <0>        -0.0833
     25 C20        -3.8693   -9.2761   -8.3191 C.ar      1 <0>         0.1344
     26 C21        -4.3014   -9.9868   -7.1710 C.ar      1 <0>        -0.1049
     27 C22        -3.9371   -9.5339   -5.8946 C.ar      1 <0>        -0.0676
     28 C23        -5.0883  -11.1424   -7.3391 C.ar      1 <0>        -0.0538
     29 C24        -5.4020  -11.5293   -8.6111 C.ar      1 <0>        -0.1698
     30 C25        -4.9447  -10.7853   -9.6961 C.ar      1 <0>         0.1434
     31 N3         -4.2119   -9.7099   -9.5360 N.ar      1 <0>        -0.4763
     32 N4         -0.5518   -2.4687   -1.9863 N.4       1 <0>        -0.6362
     33 H3         -0.9613    1.8849    0.0259 H         1 <0>         0.1312
     34 H4          1.1388    3.1630    0.0081 H         1 <0>         0.1353
     35 H5          3.3028    2.0064   -0.0198 H         1 <0>         0.1295
     36 H6         -0.9246   -0.5587    0.0082 H         1 <0>         0.1148
     37 H7          3.5346   -3.0459   -0.0490 H         1 <0>         0.1792
     38 H8          1.1742   -4.1414    0.4036 H         1 <0>         0.1217
     39 H9         -0.2127   -3.0396    0.5787 H         1 <0>         0.0998
     40 H10        -0.0618   -5.6715   -0.9910 H         1 <0>         0.1140
     41 H11        -1.5405   -4.6834   -0.9195 H         1 <0>         0.0922
     42 H12        -1.6739   -6.1971   -5.1517 H         1 <0>         0.1496
     43 H13        -3.7916   -9.4781   -3.3784 H         1 <0>         0.1669
     44 H14        -1.8556   -6.7582   -0.9157 H         1 <0>         0.1588
     45 H15        -2.1403   -6.8058   -6.8035 H         1 <0>         0.1313
     46 H16        -2.7482   -7.5715   -9.0276 H         1 <0>         0.1416
     47 H17        -4.2583  -10.0704   -5.0140 H         1 <0>         0.1377
     48 H18        -5.4338  -11.7074   -6.4860 H         1 <0>         0.1437
     49 H19        -6.0035  -12.4112   -8.7752 H         1 <0>         0.1443
     50 H20        -5.2004  -11.1028  -10.6962 H         1 <0>         0.1652
     51 H21        -1.3700   -2.3311   -1.4122 H         1 <0>         0.4299
     52 H22         0.0090   -1.6300   -1.9793 H         1 <0>         0.4382
     53 H23        -0.8356   -2.6756   -2.9322 H         1 <0>         0.4393
@<TRIPOS>BOND
     1    1    6 ar
     2    1    2 ar
     3    1   33 1
     4    2    3 ar
     5    2   34 1
     6    3    4 ar
     7    3   35 1
     8    4    9 1
     9    4    5 ar
    10    5    6 ar
    11    5    7 1
    12    6   36 1
    13    7    8 2
    14    7   11 1
    15    8    9 1
    16    8   37 1
    17    9   10 1
    18   11   12 1
    19   11   38 1
    20   11   39 1
    21   12   13 1
    22   12   14 1
    23   12   32 1
    24   14   15 1
    25   14   40 1
    26   14   41 1
    27   15   16 1
    28   16   21 ar
    29   16   17 ar
    30   17   18 ar
    31   17   42 1
    32   18   19 ar
    33   18   22 1
    34   19   20 ar
    35   19   43 1
    36   20   21 ar
    37   21   44 1
    38   22   27 ar
    39   22   23 ar
    40   23   24 ar
    41   23   45 1
    42   24   25 ar
    43   24   46 1
    44   25   31 ar
    45   25   26 ar
    46   26   27 ar
    47   26   28 ar
    48   27   47 1
    49   28   29 ar
    50   28   48 1
    51   29   30 ar
    52   29   49 1
    53   30   31 ar
    54   30   50 1
    55   32   51 1
    56   32   52 1
    57   32   53 1
@<TRIPOS>MOLECULE
CHEMBL469357
   54    58     0     0     0
SMALL
USER_CHARGES

@<TRIPOS>ATOM
      1 C1         -0.6491    0.4691   -0.5833 C.ar      1 <0>        -0.0948
      2 C2          0.4207    1.3444   -0.5657 C.ar      1 <0>        -0.1094
      3 C3          1.7111    0.8570   -0.4751 C.ar      1 <0>        -0.0942
      4 C4          1.9317   -0.5057   -0.4019 C.ar      1 <0>        -0.1233
      5 C5          0.8619   -1.3809   -0.4186 C.ar      1 <0>        -0.1104
      6 C6         -0.4284   -0.8936   -0.5105 C.ar      1 <0>        -0.1096
      7 C7          3.3386   -1.0370   -0.3042 C.3       1 <0>         0.1717
      8 C8          3.7999   -1.5152   -1.6824 C.3       1 <0>        -0.0185
      9 N1          5.1234   -2.1420   -1.5655 N.4       1 <0>        -0.6346
     10 N2          3.3728   -2.1580    0.6384 N.am      1 <0>        -0.7325
     11 C9          4.5200   -2.4697    1.2734 C.2       1 <0>         0.6113
     12 O1          5.5274   -1.8199    1.0639 O.2       1 <0>        -0.5373
     13 C10         4.5543   -3.5918    2.2169 C.2       1 <0>        -0.2821
     14 C11         5.6187   -4.0626    2.9646 C.2       1 <0>        -0.0235
     15 C12         5.4179   -5.1432    3.7948 C.2       1 <0>        -0.0890
     16 C13         4.1420   -5.7128    3.8404 C.2       1 <0>        -0.0339
     17 S1          3.2314   -4.6897    2.6960 S.3       1 <0>         0.1491
     18 C14         3.6689   -6.8595    4.6342 C.ar      1 <0>         0.0445
     19 C15         4.3989   -8.0519    4.6893 C.ar      1 <0>        -0.1541
     20 C16         3.9176   -9.1027    5.4467 C.ar      1 <0>         0.1425
     21 N3          2.7887   -9.0129    6.1197 N.ar      1 <0>        -0.4780
     22 C17         2.0488   -7.9119    6.1103 C.ar      1 <0>         0.2923
     23 C18         2.4676   -6.7914    5.3695 C.ar      1 <0>        -0.1289
     24 C19         1.4525   -5.7618    5.5732 C.2       1 <0>        -0.2099
     25 C20         0.5229   -6.2865    6.3904 C.2       1 <0>         0.0867
     26 N4          0.8602   -7.5732    6.7123 N.pl3     1 <0>        -0.5769
     27 H1          0.3431   -8.1561    7.2900 H         1 <0>         0.4269
     28 C21         6.5244   -5.6875    4.6171 C.ar      1 <0>        -0.0973
     29 C22         7.7231   -6.0893    4.0191 C.ar      1 <0>        -0.0606
     30 C23         8.7255   -6.5908    4.8308 C.ar      1 <0>        -0.1680
     31 C24         8.5118   -6.6780    6.1948 C.ar      1 <0>         0.1099
     32 N5          7.3702   -6.2916    6.7305 N.ar      1 <0>        -0.4761
     33 C25         6.3895   -5.8021    5.9998 C.ar      1 <0>         0.1277
     34 H2         -1.6575    0.8501   -0.6495 H         1 <0>         0.1332
     35 H3          0.2484    2.4090   -0.6229 H         1 <0>         0.1342
     36 H4          2.5470    1.5408   -0.4621 H         1 <0>         0.1305
     37 H5          1.0343   -2.4456   -0.3617 H         1 <0>         0.1216
     38 H6         -1.2642   -1.5774   -0.5240 H         1 <0>         0.1330
     39 H7          4.0019   -0.2467    0.0470 H         1 <0>         0.1272
     40 H8          3.0870   -2.2417   -2.0723 H         1 <0>         0.1393
     41 H9          3.8596   -0.6643   -2.3610 H         1 <0>         0.1523
     42 H10         5.7833   -1.4695   -1.2045 H         1 <0>         0.4426
     43 H11         5.0682   -2.9296   -0.9373 H         1 <0>         0.4266
     44 H12         2.5698   -2.6760    0.8054 H         1 <0>         0.4156
     45 H13         6.5886   -3.5921    2.8984 H         1 <0>         0.1525
     46 H14         5.3272   -8.1499    4.1460 H         1 <0>         0.1401
     47 H15         4.4821  -10.0225    5.4879 H         1 <0>         0.1699
     48 H16         1.4493   -4.7687    5.1489 H         1 <0>         0.1502
     49 H17        -0.3629   -5.7727    6.7337 H         1 <0>         0.1856
     50 H18         7.8629   -6.0104    2.9511 H         1 <0>         0.1347
     51 H19         9.6644   -6.9111    4.4039 H         1 <0>         0.1416
     52 H20         9.2920   -7.0690    6.8310 H         1 <0>         0.1613
     53 H21         5.4710   -5.4916    6.4755 H         1 <0>         0.1508
     54 H22         5.4276   -2.4573   -2.4743 H         1 <0>         0.4374
@<TRIPOS>BOND
     1    1    6 ar
     2    1    2 ar
     3    1   34 1
     4    2    3 ar
     5    2   35 1
     6    3    4 ar
     7    3   36 1
     8    4    5 ar
     9    4    7 1
    10    5    6 ar
    11    5   37 1
    12    6   38 1
    13    7    8 1
    14    7   10 1
    15    7   39 1
    16    8    9 1
    17    8   40 1
    18    8   41 1
    19    9   42 1
    20    9   43 1
    21    9   54 1
    22   10   11 am
    23   10   44 1
    24   11   12 2
    25   11   13 1
    26   13   17 1
    27   13   14 2
    28   14   15 1
    29   14   45 1
    30   15   16 2
    31   15   28 1
    32   16   17 1
    33   16   18 1
    34   18   23 ar
    35   18   19 ar
    36   19   20 ar
    37   19   46 1
    38   20   21 ar
    39   20   47 1
    40   21   22 ar
    41   22   26 1
    42   22   23 ar
    43   23   24 1
    44   24   25 2
    45   24   48 1
    46   25   26 1
    47   25   49 1
    48   26   27 1
    49   28   33 ar
    50   28   29 ar
    51   29   30 ar
    52   29   50 1
    53   30   31 ar
    54   30   51 1
    55   31   32 ar
    56   31   52 1
    57   32   33 ar
    58   33   53 1
@<TRIPOS>MOLECULE
CHEMBL469357
   54    58     0     0     0
SMALL
USER_CHARGES

@<TRIPOS>ATOM
      1 C1         -0.4010    1.5344   -0.9775 C.ar      1 <0>        -0.0948
      2 C2          0.7825    2.2297   -0.8143 C.ar      1 <0>        -0.1094
      3 C3          1.9647    1.5433   -0.6091 C.ar      1 <0>        -0.0943
      4 C4          1.9633    0.1616   -0.5665 C.ar      1 <0>        -0.1234
      5 C5          0.7797   -0.5337   -0.7287 C.ar      1 <0>        -0.1104
      6 C6         -0.4023    0.1527   -0.9354 C.ar      1 <0>        -0.1097
      7 C7          3.2523   -0.5867   -0.3437 C.3       1 <0>         0.1717
      8 C8          3.3472   -1.0137    1.1224 C.3       1 <0>        -0.0184
      9 N1          4.5434   -1.8447    1.3139 N.4       1 <0>        -0.6347
     10 N2          3.2821   -1.7741   -1.2012 N.am      1 <0>        -0.7324
     11 C9          4.4626   -2.3108   -1.5683 C.2       1 <0>         0.6113
     12 O1          5.5039   -1.8090   -1.1874 O.2       1 <0>        -0.5374
     13 C10         4.4924   -3.4995   -2.4266 C.2       1 <0>        -0.2821
     14 C11         5.5883   -4.1961   -2.9037 C.2       1 <0>        -0.0237
     15 C12         5.3757   -5.2967   -3.7042 C.2       1 <0>        -0.0889
     16 C13         4.0566   -5.6563   -3.9957 C.2       1 <0>        -0.0341
     17 S1          3.1240   -4.4169   -3.1126 S.3       1 <0>         0.1495
     18 C14         3.5628   -6.7753   -4.8162 C.ar      1 <0>         0.0445
     19 C15         4.1034   -7.0400   -6.0792 C.ar      1 <0>        -0.1529
     20 C16         3.6097   -8.1004   -6.8150 C.ar      1 <0>         0.1437
     21 N3          2.6426   -8.8703   -6.3597 N.ar      1 <0>        -0.4780
     22 C17         2.0866   -8.6741   -5.1714 C.ar      1 <0>         0.2919
     23 C18         2.5329   -7.6199   -4.3533 C.ar      1 <0>        -0.1291
     24 C19         1.7357   -7.6825   -3.1316 C.2       1 <0>        -0.2105
     25 C20         0.8953   -8.7231   -3.2668 C.2       1 <0>         0.0861
     26 N4          1.0864   -9.3196   -4.4837 N.pl3     1 <0>        -0.5770
     27 H1          0.5967  -10.0916   -4.8080 H         1 <0>         0.4269
     28 C21         6.5145   -6.0781   -4.2422 C.ar      1 <0>        -0.0979
     29 C22         7.5157   -5.4515   -4.9910 C.ar      1 <0>        -0.0599
     30 C23         8.5577   -6.2255   -5.4709 C.ar      1 <0>        -0.1668
     31 C24         8.5755   -7.5814   -5.1973 C.ar      1 <0>         0.1096
     32 N5          7.6166   -8.1449   -4.4884 N.ar      1 <0>        -0.4771
     33 C25         6.6081   -7.4486   -4.0053 C.ar      1 <0>         0.1263
     34 H2         -1.3254    2.0708   -1.1334 H         1 <0>         0.1333
     35 H3          0.7836    3.3092   -0.8476 H         1 <0>         0.1343
     36 H4          2.8895    2.0866   -0.4823 H         1 <0>         0.1305
     37 H5          0.7786   -1.6132   -0.6958 H         1 <0>         0.1217
     38 H6         -1.3271   -0.3906   -1.0626 H         1 <0>         0.1330
     39 H7          4.0949    0.0599   -0.5891 H         1 <0>         0.1271
     40 H8          3.4146   -0.1287    1.7550 H         1 <0>         0.1523
     41 H9          2.4600   -1.5865    1.3922 H         1 <0>         0.1394
     42 H10         4.4811   -2.6640    0.7283 H         1 <0>         0.4267
     43 H11         5.3648   -1.3145    1.0642 H         1 <0>         0.4426
     44 H12         2.4522   -2.1741   -1.5047 H         1 <0>         0.4156
     45 H13         6.5911   -3.8828   -2.6537 H         1 <0>         0.1525
     46 H14         4.8968   -6.4229   -6.4744 H         1 <0>         0.1406
     47 H15         4.0279   -8.3033   -7.7899 H         1 <0>         0.1704
     48 H16         1.8076   -7.0199   -2.2818 H         1 <0>         0.1490
     49 H17         0.1709   -9.0357   -2.5293 H         1 <0>         0.1848
     50 H18         7.4766   -4.3907   -5.1900 H         1 <0>         0.1362
     51 H19         9.3483   -5.7759   -6.0532 H         1 <0>         0.1421
     52 H20         9.3872   -8.1882   -5.5704 H         1 <0>         0.1613
     53 H21         5.8443   -7.9448   -3.4248 H         1 <0>         0.1503
     54 H22         4.6060   -2.1263    2.2808 H         1 <0>         0.4374
@<TRIPOS>BOND
     1    1    6 ar
     2    1    2 ar
     3    1   34 1
     4    2    3 ar
     5    2   35 1
     6    3    4 ar
     7    3   36 1
     8    4    5 ar
     9    4    7 1
    10    5    6 ar
    11    5   37 1
    12    6   38 1
    13    7    8 1
    14    7   10 1
    15    7   39 1
    16    8    9 1
    17    8   40 1
    18    8   41 1
    19    9   42 1
    20    9   43 1
    21    9   54 1
    22   10   11 am
    23   10   44 1
    24   11   12 2
    25   11   13 1
    26   13   17 1
    27   13   14 2
    28   14   15 1
    29   14   45 1
    30   15   16 2
    31   15   28 1
    32   16   17 1
    33   16   18 1
    34   18   23 ar
    35   18   19 ar
    36   19   20 ar
    37   19   46 1
    38   20   21 ar
    39   20   47 1
    40   21   22 ar
    41   22   26 1
    42   22   23 ar
    43   23   24 1
    44   24   25 2
    45   24   48 1
    46   25   26 1
    47   25   49 1
    48   26   27 1
    49   28   33 ar
    50   28   29 ar
    51   29   30 ar
    52   29   50 1
    53   30   31 ar
    54   30   51 1
    55   31   32 ar
    56   31   52 1
    57   32   33 ar
    58   33   53 1
@<TRIPOS>MOLECULE
CHEMBL470202
   52    56     0     0     0
SMALL
USER_CHARGES

@<TRIPOS>ATOM
      1 C1         -0.7387    0.3710   -0.5921 C.ar      1 <0>        -0.0951
      2 C2          0.3226    1.2567   -0.5969 C.ar      1 <0>        -0.1097
      3 C3          1.6186    0.7830   -0.5141 C.ar      1 <0>        -0.0944
      4 C4          1.8533   -0.5765   -0.4261 C.ar      1 <0>        -0.1230
      5 C5          0.7919   -1.4621   -0.4204 C.ar      1 <0>        -0.1101
      6 C6         -0.5040   -0.9885   -0.5046 C.ar      1 <0>        -0.1097
      7 C7          3.2662   -1.0930   -0.3368 C.3       1 <0>         0.1717
      8 C8          3.7176   -1.5841   -1.7138 C.3       1 <0>        -0.0185
      9 N1          5.0482   -2.1965   -1.6032 N.4       1 <0>        -0.6343
     10 N2          3.3214   -2.2016    0.6193 N.am      1 <0>        -0.7330
     11 C9          4.4782   -2.4941    1.2459 C.2       1 <0>         0.6114
     12 O1          5.4770   -1.8373    1.0174 O.2       1 <0>        -0.5396
     13 C10         4.5334   -3.6038    2.2028 C.2       1 <0>        -0.2846
     14 C11         5.6108   -4.0553    2.9456 C.2       1 <0>        -0.0248
     15 C12         5.4287   -5.1265    3.7905 C.2       1 <0>        -0.0453
     16 C13         4.1603   -5.7077    3.8572 C.2       1 <0>        -0.0403
     17 S1          3.2268   -4.7084    2.7101 S.3       1 <0>         0.1357
     18 C14         3.7077   -6.8491    4.6700 C.ar      1 <0>         0.0522
     19 C15         4.4510   -8.0330    4.7321 C.ar      1 <0>        -0.1509
     20 C16         3.9889   -9.0791    5.5075 C.ar      1 <0>         0.1403
     21 N3          2.8660   -8.9928    6.1912 N.ar      1 <0>        -0.4813
     22 C17         2.1144   -7.8996    6.1760 C.ar      1 <0>         0.2905
     23 C18         2.5134   -6.7843    5.4171 C.ar      1 <0>        -0.1306
     24 C19         1.4894   -5.7630    5.6183 C.2       1 <0>        -0.2081
     25 C20         0.5738   -6.2871    6.4514 C.2       1 <0>         0.0834
     26 N4          0.9290   -7.5657    6.7869 N.pl3     1 <0>        -0.5781
     27 H1          0.4241   -8.1468    7.3771 H         1 <0>         0.4260
     28 C21         6.5507   -5.6506    4.6088 C.2       1 <0>        -0.2004
     29 C22         7.7639   -6.0654    4.1421 C.2       1 <0>         0.0811
     30 N5          8.4943   -6.4655    5.2040 N.pl3     1 <0>        -0.4676
     31 H2          9.4004   -6.8104    5.1737 H         1 <0>         0.4456
     32 N6          7.7185   -6.2959    6.3572 N.2       1 <0>        -0.2805
     33 C23         6.5587   -5.8043    6.0090 C.2       1 <0>         0.0773
     34 H3         -1.7514    0.7414   -0.6522 H         1 <0>         0.1330
     35 H4          0.1393    2.3188   -0.6656 H         1 <0>         0.1339
     36 H5          2.4478    1.4749   -0.5185 H         1 <0>         0.1303
     37 H6          0.9753   -2.5243   -0.3520 H         1 <0>         0.1219
     38 H7         -1.3332   -1.6804   -0.5005 H         1 <0>         0.1329
     39 H8          3.9255   -0.2919   -0.0027 H         1 <0>         0.1267
     40 H9          3.0077   -2.3223   -2.0869 H         1 <0>         0.1391
     41 H10         3.7617   -0.7413   -2.4036 H         1 <0>         0.1517
     42 H11         5.3459   -2.5204   -2.5113 H         1 <0>         0.4370
     43 H12         5.7053   -1.5132   -1.2578 H         1 <0>         0.4425
     44 H13         2.5253   -2.7251    0.8013 H         1 <0>         0.4157
     45 H14         6.5755   -3.5767    2.8634 H         1 <0>         0.1505
     46 H15         5.3745   -8.1281    4.1803 H         1 <0>         0.1404
     47 H16         4.5635   -9.9924    5.5541 H         1 <0>         0.1678
     48 H17         1.4712   -4.7753    5.1817 H         1 <0>         0.1499
     49 H18        -0.3138   -5.7784    6.7976 H         1 <0>         0.1844
     50 H19         8.0819   -6.0726    3.1100 H         1 <0>         0.1795
     51 H20         5.7468   -5.5606    6.6781 H         1 <0>         0.1806
     52 H21         5.0074   -2.9767   -0.9647 H         1 <0>         0.4270
@<TRIPOS>BOND
     1    1    6 ar
     2    1    2 ar
     3    1   34 1
     4    2    3 ar
     5    2   35 1
     6    3    4 ar
     7    3   36 1
     8    4    5 ar
     9    4    7 1
    10    5    6 ar
    11    5   37 1
    12    6   38 1
    13    7    8 1
    14    7   10 1
    15    7   39 1
    16    8    9 1
    17    8   40 1
    18    8   41 1
    19    9   42 1
    20    9   43 1
    21    9   52 1
    22   10   11 am
    23   10   44 1
    24   11   12 2
    25   11   13 1
    26   13   17 1
    27   13   14 2
    28   14   15 1
    29   14   45 1
    30   15   16 2
    31   15   28 1
    32   16   17 1
    33   16   18 1
    34   18   23 ar
    35   18   19 ar
    36   19   20 ar
    37   19   46 1
    38   20   21 ar
    39   20   47 1
    40   21   22 ar
    41   22   26 1
    42   22   23 ar
    43   23   24 1
    44   24   25 2
    45   24   48 1
    46   25   26 1
    47   25   49 1
    48   26   27 1
    49   28   33 1
    50   28   29 2
    51   29   30 1
    52   29   50 1
    53   30   31 1
    54   30   32 1
    55   32   33 2
    56   33   51 1
@<TRIPOS>MOLECULE
CHEMBL470202
   52    56     0     0     0
SMALL
USER_CHARGES

@<TRIPOS>ATOM
      1 C1         -0.5112    1.4814   -1.0735 C.ar      1 <0>        -0.0952
      2 C2          0.6606    2.1956   -0.9070 C.ar      1 <0>        -0.1098
      3 C3          1.8511    1.5288   -0.6860 C.ar      1 <0>        -0.0945
      4 C4          1.8698    0.1476   -0.6310 C.ar      1 <0>        -0.1230
      5 C5          0.6978   -0.5666   -0.7965 C.ar      1 <0>        -0.1101
      6 C6         -0.4924    0.1002   -1.0190 C.ar      1 <0>        -0.1097
      7 C7          3.1678   -0.5794   -0.3910 C.3       1 <0>         0.1719
      8 C8          3.2569   -0.9920    1.0797 C.3       1 <0>        -0.0184
      9 N1          4.4636   -1.8034    1.2884 N.4       1 <0>        -0.6344
     10 N2          3.2221   -1.7739   -1.2374 N.am      1 <0>        -0.7331
     11 C9          4.4135   -2.2963   -1.5901 C.2       1 <0>         0.6114
     12 O1          5.4441   -1.7757   -1.2053 O.2       1 <0>        -0.5396
     13 C10         4.4679   -3.4919   -2.4373 C.2       1 <0>        -0.2845
     14 C11         5.5783   -4.1770   -2.8997 C.2       1 <0>        -0.0250
     15 C12         5.3879   -5.2868   -3.6913 C.2       1 <0>        -0.0450
     16 C13         4.0781   -5.6687   -3.9903 C.2       1 <0>        -0.0407
     17 S1          3.1192   -4.4359   -3.1264 S.3       1 <0>         0.1361
     18 C14         3.6084   -6.8017   -4.8053 C.ar      1 <0>         0.0523
     19 C15         4.1644   -7.0693   -6.0611 C.ar      1 <0>        -0.1497
     20 C16         3.6932   -8.1431   -6.7920 C.ar      1 <0>         0.1415
     21 N3          2.7334   -8.9233   -6.3386 N.ar      1 <0>        -0.4814
     22 C17         2.1637   -8.7251   -5.1568 C.ar      1 <0>         0.2900
     23 C18         2.5869   -7.6576   -4.3442 C.ar      1 <0>        -0.1309
     24 C19         1.7793   -7.7211   -3.1292 C.2       1 <0>        -0.2088
     25 C20         0.9555   -8.7750   -3.2629 C.2       1 <0>         0.0828
     26 N4          1.1675   -9.3800   -4.4722 N.pl3     1 <0>        -0.5780
     27 H1          0.6922  -10.1618   -4.7942 H         1 <0>         0.4260
     28 C21         6.5441   -6.0572   -4.2138 C.2       1 <0>        -0.2021
     29 C22         7.5805   -5.5576   -4.9474 C.2       1 <0>         0.0833
     30 N5          8.4170   -6.5807   -5.2210 N.pl3     1 <0>        -0.4671
     31 H2          9.2414   -6.5212   -5.7286 H         1 <0>         0.4459
     32 N6          7.8895   -7.7427   -4.6450 N.2       1 <0>        -0.2816
     33 C23         6.7740   -7.4356   -4.0373 C.2       1 <0>         0.0764
     34 H3         -1.4420    2.0026   -1.2417 H         1 <0>         0.1330
     35 H4          0.6460    3.2747   -0.9500 H         1 <0>         0.1339
     36 H5          2.7667    2.0868   -0.5566 H         1 <0>         0.1303
     37 H6          0.7125   -1.6457   -0.7539 H         1 <0>         0.1220
     38 H7         -1.4079   -0.4578   -1.1487 H         1 <0>         0.1329
     39 H8          4.0027    0.0773   -0.6353 H         1 <0>         0.1266
     40 H9          3.3059   -0.1005    1.7048 H         1 <0>         0.1516
     41 H10         2.3760   -1.5755    1.3474 H         1 <0>         0.1391
     42 H11         4.5223   -2.0755    2.2582 H         1 <0>         0.4371
     43 H12         4.4182   -2.6287    0.7097 H         1 <0>         0.4271
     44 H13         2.4007   -2.1889   -1.5441 H         1 <0>         0.4156
     45 H14         6.5745   -3.8470   -2.6446 H         1 <0>         0.1505
     46 H15         4.9521   -6.4439   -6.4546 H         1 <0>         0.1409
     47 H16         4.1231   -8.3481   -7.7613 H         1 <0>         0.1684
     48 H17         1.8337   -7.0501   -2.2848 H         1 <0>         0.1487
     49 H18         0.2290   -9.0918   -2.5292 H         1 <0>         0.1836
     50 H19         7.7081   -4.5299   -5.2538 H         1 <0>         0.1807
     51 H20         6.1378   -8.1201   -3.4959 H         1 <0>         0.1802
     52 H21         5.2790   -1.2633    1.0406 H         1 <0>         0.4425
@<TRIPOS>BOND
     1    1    6 ar
     2    1    2 ar
     3    1   34 1
     4    2    3 ar
     5    2   35 1
     6    3    4 ar
     7    3   36 1
     8    4    5 ar
     9    4    7 1
    10    5    6 ar
    11    5   37 1
    12    6   38 1
    13    7    8 1
    14    7   10 1
    15    7   39 1
    16    8    9 1
    17    8   40 1
    18    8   41 1
    19    9   42 1
    20    9   43 1
    21    9   52 1
    22   10   11 am
    23   10   44 1
    24   11   12 2
    25   11   13 1
    26   13   17 1
    27   13   14 2
    28   14   15 1
    29   14   45 1
    30   15   16 2
    31   15   28 1
    32   16   17 1
    33   16   18 1
    34   18   23 ar
    35   18   19 ar
    36   19   20 ar
    37   19   46 1
    38   20   21 ar
    39   20   47 1
    40   21   22 ar
    41   22   26 1
    42   22   23 ar
    43   23   24 1
    44   24   25 2
    45   24   48 1
    46   25   26 1
    47   25   49 1
    48   26   27 1
    49   28   33 1
    50   28   29 2
    51   29   30 1
    52   29   50 1
    53   30   31 1
    54   30   32 1
    55   32   33 2
    56   33   51 1
@<TRIPOS>MOLECULE
CHEMBL493360
   41    45     0     0     0
SMALL
USER_CHARGES

@<TRIPOS>ATOM
      1 C1         -0.0167    1.3822    0.0096 C.ar      1 <0>        -0.0962
      2 C2          1.1648    2.0983    0.0022 C.ar      1 <0>        -0.0950
      3 C3          2.3850    1.4407   -0.0126 C.ar      1 <0>        -0.0629
      4 C4          2.4204    0.0512   -0.0197 C.ar      1 <0>        -0.1229
      5 C5          1.2175   -0.6772   -0.0128 C.ar      1 <0>        -0.1245
      6 C6          0.0021   -0.0041    0.0020 C.ar      1 <0>        -0.0623
      7 C7          1.2737   -2.1521   -0.0218 C.2       1 <0>         0.4254
      8 O1          0.2438   -2.7964   -0.0188 O.2       1 <0>        -0.3958
      9 C8          2.5787   -2.8495   -0.0352 C.2       1 <0>        -0.1091
     10 C9          3.7258   -2.1606   -0.0398 C.2       1 <0>        -0.1116
     11 C10         3.7029   -0.6778   -0.0348 C.2       1 <0>         0.4243
     12 O2          4.7481   -0.0587   -0.0441 O.2       1 <0>        -0.4082
     13 C11         5.0680   -2.8337   -0.0467 C.3       1 <0>         0.0952
     14 H1          5.7076   -2.3799   -0.8037 H         1 <0>         0.1225
     15 C12         4.9529   -4.3504   -0.2956 C.3       1 <0>         0.0612
     16 H2          4.9442   -4.6020   -1.3561 H         1 <0>         0.1217
     17 C13         6.2247   -4.8633    0.4312 C.3       1 <0>        -0.1738
     18 C14         6.6097   -3.7187    1.3487 C.2       1 <0>         0.4829
     19 O3          7.5907   -3.6837    2.0533 O.2       1 <0>        -0.4353
     20 O4          5.6888   -2.7312    1.2463 O.3       1 <0>        -0.3219
     21 O5          3.8059   -4.8533    0.3934 O.3       1 <0>        -0.3465
     22 C15         2.5727   -4.3582   -0.0456 C.3       1 <0>         0.1809
     23 H3          2.4148   -4.7126   -1.0642 H         1 <0>         0.0970
     24 C16         1.4586   -4.8605    0.8361 C.ar      1 <0>        -0.0986
     25 C17         1.6276   -4.8984    2.2078 C.ar      1 <0>        -0.0735
     26 C18         0.6080   -5.3589    3.0181 C.ar      1 <0>        -0.1530
     27 C19        -0.5866   -5.7831    2.4545 C.ar      1 <0>         0.1191
     28 C20        -0.7539   -5.7437    1.0778 C.ar      1 <0>        -0.1489
     29 C21         0.2669   -5.2774    0.2722 C.ar      1 <0>        -0.0436
     30 O6         -1.5910   -6.2370    3.2495 O.3       1 <0>        -0.5001
     31 H4         -0.9612    1.9057    0.0260 H         1 <0>         0.1411
     32 H5          1.1375    3.1780    0.0076 H         1 <0>         0.1413
     33 H6          3.3052    2.0061   -0.0189 H         1 <0>         0.1458
     34 H7         -0.9246   -0.5587    0.0079 H         1 <0>         0.1455
     35 H8          5.9988   -5.7583    1.0109 H         1 <0>         0.1362
     36 H9          7.0207   -5.0624   -0.2862 H         1 <0>         0.1348
     37 H10         2.5578   -4.5681    2.6461 H         1 <0>         0.1276
     38 H11         0.7408   -5.3890    4.0895 H         1 <0>         0.1297
     39 H12        -1.6829   -6.0734    0.6367 H         1 <0>         0.1313
     40 H13         0.1356   -5.2424   -0.7992 H         1 <0>         0.1274
     41 H14        -2.2027   -5.5478    3.5424 H         1 <0>         0.3927
@<TRIPOS>BOND
     1    1    6 ar
     2    1    2 ar
     3    1   31 1
     4    2    3 ar
     5    2   32 1
     6    3    4 ar
     7    3   33 1
     8    4   11 1
     9    4    5 ar
    10    5    6 ar
    11    5    7 1
    12    6   34 1
    13    7    8 2
    14    7    9 1
    15    9   22 1
    16    9   10 2
    17   10   11 1
    18   10   13 1
    19   11   12 2
    20   13   14 1
    21   13   20 1
    22   13   15 1
    23   15   16 1
    24   15   17 1
    25   15   21 1
    26   17   18 1
    27   17   35 1
    28   17   36 1
    29   18   19 2
    30   18   20 1
    31   21   22 1
    32   22   23 1
    33   22   24 1
    34   24   29 ar
    35   24   25 ar
    36   25   26 ar
    37   25   37 1
    38   26   27 ar
    39   26   38 1
    40   27   28 ar
    41   27   30 1
    42   28   29 ar
    43   28   39 1
    44   29   40 1
    45   30   41 1
@<TRIPOS>MOLECULE
CHEMBL572670
   59    64     0     0     0
SMALL
USER_CHARGES

@<TRIPOS>ATOM
      1 C1         -0.0165    1.3620    0.0095 C.ar      1 <0>        -0.1190
      2 C2          1.1697    2.0834    0.0021 C.ar      1 <0>        -0.0932
      3 C3          2.3856    1.4362   -0.0134 C.ar      1 <0>        -0.1109
      4 C4          2.4281    0.0456   -0.0212 C.ar      1 <0>         0.0986
      5 C5          1.2234   -0.6807   -0.0132 C.ar      1 <0>        -0.1171
      6 C6          0.0021   -0.0041    0.0020 C.ar      1 <0>        -0.1142
      7 C7          1.6036   -2.0953   -0.0245 C.2       1 <0>        -0.2378
      8 C8          2.9451   -2.1410   -0.0380 C.2       1 <0>         0.1041
      9 N1          3.4551   -0.8713   -0.0363 N.pl3     1 <0>        -0.5843
     10 H1          4.3995   -0.6501   -0.0442 H         1 <0>         0.4266
     11 C9          0.6664   -3.2754   -0.0210 C.3       1 <0>        -0.0555
     12 C10         0.2361   -3.5891   -1.4554 C.3       1 <0>         0.0434
     13 H2          1.1200   -3.7379   -2.0756 H         1 <0>         0.1530
     14 C11        -0.6144   -4.8610   -1.4661 C.3       1 <0>         0.0263
     15 O1         -0.9189   -5.2190   -2.8156 O.3       1 <0>        -0.3226
     16 C12        -1.6731   -6.3340   -3.0030 C.ar      1 <0>         0.0719
     17 C13        -2.0064   -6.7503   -4.2858 C.ar      1 <0>        -0.1004
     18 C14        -2.7833   -7.9021   -4.4264 C.ar      1 <0>        -0.0294
     19 C15        -3.1916   -8.5851   -3.2822 C.ar      1 <0>         0.0805
     20 N2         -2.8523   -8.1545   -2.0847 N.ar      1 <0>        -0.4362
     21 C16        -2.1151   -7.0742   -1.9153 C.ar      1 <0>         0.0169
     22 C17        -3.1686   -8.3911   -5.7734 C.ar      1 <0>        -0.0995
     23 C18        -2.7471   -7.6983   -6.9145 C.ar      1 <0>        -0.0537
     24 C19        -3.0919   -8.1343   -8.1595 C.ar      1 <0>        -0.1327
     25 C20        -3.8722   -9.2802   -8.3092 C.ar      1 <0>         0.1458
     26 C21        -4.3016   -9.9847   -7.1693 C.ar      1 <0>        -0.1695
     27 C22        -3.9405   -9.5364   -5.8987 C.ar      1 <0>        -0.0150
     28 C23        -5.0906  -11.1216   -7.6602 C.2       1 <0>         0.1762
     29 N3         -5.1013  -11.0574   -8.9711 N.2       1 <0>        -0.2202
     30 N4         -4.3680   -9.9470   -9.4004 N.pl3     1 <0>        -0.4979
     31 H3         -4.2316   -9.6884  -10.3253 H         1 <0>         0.4473
     32 C24        -5.7511  -12.1496   -6.8306 C.2       1 <0>         0.0575
     33 C25        -5.8870  -13.4691   -7.1450 C.2       1 <0>        -0.1371
     34 C26        -6.5723  -14.0837   -6.0844 C.2       1 <0>        -0.2000
     35 C27        -6.8344  -13.1347   -5.1600 C.2       1 <0>         0.0155
     36 N5         -6.3314  -11.9473   -5.6042 N.pl3     1 <0>        -0.5494
     37 H4         -6.3778  -11.1009   -5.1326 H         1 <0>         0.4138
     38 N6         -0.5518   -2.4687   -1.9863 N.4       1 <0>        -0.6362
     39 H5         -0.9613    1.8849    0.0259 H         1 <0>         0.1312
     40 H6          1.1388    3.1630    0.0081 H         1 <0>         0.1353
     41 H7          3.3028    2.0064   -0.0198 H         1 <0>         0.1295
     42 H8         -0.9246   -0.5587    0.0082 H         1 <0>         0.1148
     43 H9          3.5346   -3.0459   -0.0490 H         1 <0>         0.1792
     44 H10         1.1742   -4.1414    0.4036 H         1 <0>         0.1218
     45 H11        -0.2127   -3.0396    0.5787 H         1 <0>         0.0998
     46 H12        -0.0618   -5.6715   -0.9910 H         1 <0>         0.1140
     47 H13        -1.5405   -4.6834   -0.9195 H         1 <0>         0.0920
     48 H14        -1.6736   -6.1973   -5.1518 H         1 <0>         0.1483
     49 H15        -3.7931   -9.4769   -3.3786 H         1 <0>         0.1635
     50 H16        -1.8556   -6.7583   -0.9157 H         1 <0>         0.1578
     51 H17        -2.1431   -6.8094   -6.8076 H         1 <0>         0.1338
     52 H18        -2.7602   -7.5906   -9.0317 H         1 <0>         0.1360
     53 H19        -4.2630  -10.0744   -5.0195 H         1 <0>         0.1293
     54 H20        -5.5333  -13.9524   -8.0438 H         1 <0>         0.1428
     55 H21        -6.8416  -15.1276   -6.0198 H         1 <0>         0.1446
     56 H22        -7.3520  -13.2905   -4.2250 H         1 <0>         0.1736
     57 H23         0.0090   -1.6300   -1.9793 H         1 <0>         0.4381
     58 H24        -0.8356   -2.6756   -2.9322 H         1 <0>         0.4391
     59 H25        -1.3700   -2.3311   -1.4122 H         1 <0>         0.4299
@<TRIPOS>BOND
     1    1    6 ar
     2    1    2 ar
     3    1   39 1
     4    2    3 ar
     5    2   40 1
     6    3    4 ar
     7    3   41 1
     8    4    9 1
     9    4    5 ar
    10    5    6 ar
    11    5    7 1
    12    6   42 1
    13    7    8 2
    14    7   11 1
    15    8    9 1
    16    8   43 1
    17    9   10 1
    18   11   12 1
    19   11   44 1
    20   11   45 1
    21   12   13 1
    22   12   14 1
    23   12   38 1
    24   14   15 1
    25   14   46 1
    26   14   47 1
    27   15   16 1
    28   16   21 ar
    29   16   17 ar
    30   17   18 ar
    31   17   48 1
    32   18   19 ar
    33   18   22 1
    34   19   20 ar
    35   19   49 1
    36   20   21 ar
    37   21   50 1
    38   22   27 ar
    39   22   23 ar
    40   23   24 ar
    41   23   51 1
    42   24   25 ar
    43   24   52 1
    44   25   30 1
    45   25   26 ar
    46   26   27 ar
    47   26   28 1
    48   27   53 1
    49   28   29 2
    50   28   32 1
    51   29   30 1
    52   30   31 1
    53   32   36 1
    54   32   33 2
    55   33   34 1
    56   33   54 1
    57   34   35 2
    58   34   55 1
    59   35   36 1
    60   35   56 1
    61   36   37 1
    62   38   57 1
    63   38   58 1
    64   38   59 1
@<TRIPOS>MOLECULE
CHEMBL402199
   70    76     0     0     0
SMALL
USER_CHARGES

@<TRIPOS>ATOM
      1 C1         -0.0167    1.3791    0.0096 C.ar      1 <0>        -0.1101
      2 C2          1.1686    2.0924    0.0021 C.ar      1 <0>        -0.1114
      3 C3          2.3774    1.4269   -0.0135 C.ar      1 <0>        -0.1058
      4 C4          2.4026    0.0330   -0.0212 C.ar      1 <0>        -0.0463
      5 C5          1.2049   -0.6804   -0.0131 C.ar      1 <0>        -0.1000
      6 C6          0.0021   -0.0041    0.0020 C.ar      1 <0>        -0.1208
      7 C7          3.6978   -0.6876   -0.0384 C.ar      1 <0>        -0.1175
      8 C8          4.6777   -0.3464   -0.9613 C.ar      1 <0>         0.0048
      9 C9          5.8822   -1.0592   -0.9338 C.ar      1 <0>        -0.2487
     10 C10         6.9382   -0.7816   -1.8350 C.ar      1 <0>         0.4948
     11 N1          8.0479   -1.5039   -1.7418 N.ar      1 <0>        -0.5950
     12 C11         8.1732   -2.4588   -0.8351 C.ar      1 <0>         0.3856
     13 N2          7.2281   -2.7591    0.0241 N.ar      1 <0>        -0.5455
     14 C12         6.0635   -2.0923    0.0205 C.ar      1 <0>         0.3816
     15 N3          5.0935   -2.3829    0.8857 N.ar      1 <0>        -0.4572
     16 C13         3.9493   -1.7234    0.8867 C.ar      1 <0>         0.2424
     17 C14         2.9060   -2.0823    1.8752 C.ar      1 <0>        -0.0178
     18 C15         2.0789   -1.0949    2.4100 C.ar      1 <0>        -0.0778
     19 C16         1.1089   -1.4354    3.3304 C.ar      1 <0>        -0.1021
     20 C17         0.9560   -2.7531    3.7229 C.ar      1 <0>        -0.1475
     21 C18         1.7734   -3.7371    3.1960 C.ar      1 <0>        -0.0961
     22 C19         2.7431   -3.4098    2.2706 C.ar      1 <0>        -0.0686
     23 C20        -0.1050   -3.1181    4.7289 C.3       1 <0>         0.0432
     24 N4         -1.3556   -3.4379    4.0276 N.4       1 <0>        -0.3851
     25 C21        -1.8526   -2.2374    3.3447 C.3       1 <0>        -0.0070
     26 C22        -3.1110   -2.5843    2.5463 C.3       1 <0>        -0.1647
     27 C23        -4.1856   -3.1120    3.5014 C.3       1 <0>         0.1609
     28 C24        -3.6299   -4.3192    4.2624 C.3       1 <0>        -0.1670
     29 C25        -2.3522   -3.9080    4.9972 C.3       1 <0>         0.0010
     30 N5         -5.3662   -3.5173    2.7346 N.am      1 <0>        -0.5373
     31 C26        -6.6472   -2.9872    2.8694 C.ar      1 <0>         0.0796
     32 C27        -7.1893   -2.0039    3.6830 C.ar      1 <0>        -0.1044
     33 C28        -8.5307   -1.6911    3.5826 C.ar      1 <0>        -0.1028
     34 C29        -9.3364   -2.3554    2.6737 C.ar      1 <0>        -0.0990
     35 C30        -8.8056   -3.3365    1.8595 C.ar      1 <0>        -0.1001
     36 C31        -7.4597   -3.6569    1.9523 C.ar      1 <0>         0.0916
     37 N6         -6.6471   -4.5731    1.2887 N.am      1 <0>        -0.6395
     38 H1         -6.9326   -5.1844    0.5917 H         1 <0>         0.4397
     39 C32        -5.3968   -4.4617    1.7754 C.2       1 <0>         0.6856
     40 O1         -4.4402   -5.1174    1.4069 O.2       1 <0>        -0.5575
     41 N7          6.8171    0.2107   -2.7832 N.pl3     1 <0>        -0.8104
     42 H2         -0.9603    1.9042    0.0260 H         1 <0>         0.1260
     43 H3          1.1478    3.1722    0.0082 H         1 <0>         0.1299
     44 H4          3.3021    1.9848   -0.0200 H         1 <0>         0.1268
     45 H5          1.2183   -1.7603   -0.0194 H         1 <0>         0.1208
     46 H6         -0.9264   -0.5557    0.0079 H         1 <0>         0.1221
     47 H7          4.5154    0.4444   -1.6787 H         1 <0>         0.1455
     48 H8          9.0966   -3.0178   -0.8007 H         1 <0>         0.2087
     49 H9          2.1976   -0.0658    2.1046 H         1 <0>         0.1438
     50 H10         0.4681   -0.6716    3.7455 H         1 <0>         0.1353
     51 H11         1.6494   -4.7640    3.5066 H         1 <0>         0.1371
     52 H12         3.3775   -4.1795    1.8563 H         1 <0>         0.1444
     53 H13         0.2215   -3.9853    5.3030 H         1 <0>         0.1404
     54 H14        -0.2712   -2.2778    5.4029 H         1 <0>         0.1382
     55 H15        -2.0910   -1.4722    4.0835 H         1 <0>         0.1327
     56 H16        -1.0856   -1.8612    2.6678 H         1 <0>         0.1391
     57 H17        -3.4795   -1.6913    2.0415 H         1 <0>         0.1166
     58 H18        -2.8737   -3.3493    1.8070 H         1 <0>         0.1070
     59 H19        -4.4601   -2.3298    4.2091 H         1 <0>         0.1149
     60 H20        -4.3693   -4.6662    4.9842 H         1 <0>         0.1181
     61 H21        -3.4033   -5.1202    3.5587 H         1 <0>         0.1076
     62 H22        -1.9541   -4.7652    5.5402 H         1 <0>         0.1389
     63 H23        -2.5799   -3.1072    5.7007 H         1 <0>         0.1335
     64 H24        -6.5640   -1.4841    4.3937 H         1 <0>         0.1289
     65 H25        -8.9531   -0.9253    4.2163 H         1 <0>         0.1386
     66 H26       -10.3846   -2.1055    2.6012 H         1 <0>         0.1399
     67 H27        -9.4373   -3.8531    1.1520 H         1 <0>         0.1366
     68 H28         6.0000    0.7303   -2.8398 H         1 <0>         0.4140
     69 H29         7.5490    0.3897   -3.3941 H         1 <0>         0.4205
     70 H30        -1.1824   -4.1622    3.3468 H         1 <0>         0.4263
@<TRIPOS>BOND
     1    1    6 ar
     2    1    2 ar
     3    1   42 1
     4    2    3 ar
     5    2   43 1
     6    3    4 ar
     7    3   44 1
     8    4    5 ar
     9    4    7 1
    10    5    6 ar
    11    5   45 1
    12    6   46 1
    13    7   16 ar
    14    7    8 ar
    15    8    9 ar
    16    8   47 1
    17    9   14 ar
    18    9   10 ar
    19   10   11 ar
    20   10   41 1
    21   11   12 ar
    22   12   13 ar
    23   12   48 1
    24   13   14 ar
    25   14   15 ar
    26   15   16 ar
    27   16   17 1
    28   17   22 ar
    29   17   18 ar
    30   18   19 ar
    31   18   49 1
    32   19   20 ar
    33   19   50 1
    34   20   21 ar
    35   20   23 1
    36   21   22 ar
    37   21   51 1
    38   22   52 1
    39   23   24 1
    40   23   53 1
    41   23   54 1
    42   24   29 1
    43   24   25 1
    44   24   70 1
    45   25   26 1
    46   25   55 1
    47   25   56 1
    48   26   27 1
    49   26   57 1
    50   26   58 1
    51   27   28 1
    52   27   30 1
    53   27   59 1
    54   28   29 1
    55   28   60 1
    56   28   61 1
    57   29   62 1
    58   29   63 1
    59   30   39 am
    60   30   31 1
    61   31   36 ar
    62   31   32 ar
    63   32   33 ar
    64   32   64 1
    65   33   34 ar
    66   33   65 1
    67   34   35 ar
    68   34   66 1
    69   35   36 ar
    70   35   67 1
    71   36   37 1
    72   37   38 1
    73   37   39 am
    74   39   40 2
    75   41   68 1
    76   41   69 1
@<TRIPOS>MOLECULE
CHEMBL576733
   58    63     0     0     0
SMALL
USER_CHARGES

@<TRIPOS>ATOM
      1 C1         -0.0165    1.3620    0.0095 C.ar      1 <0>        -0.1191
      2 C2          1.1697    2.0834    0.0021 C.ar      1 <0>        -0.0932
      3 C3          2.3856    1.4362   -0.0134 C.ar      1 <0>        -0.1110
      4 C4          2.4281    0.0456   -0.0212 C.ar      1 <0>         0.0986
      5 C5          1.2234   -0.6807   -0.0132 C.ar      1 <0>        -0.1171
      6 C6          0.0021   -0.0041    0.0020 C.ar      1 <0>        -0.1140
      7 C7          1.6036   -2.0953   -0.0245 C.2       1 <0>        -0.2375
      8 C8          2.9451   -2.1410   -0.0380 C.2       1 <0>         0.1039
      9 N1          3.4551   -0.8713   -0.0363 N.pl3     1 <0>        -0.5844
     10 H1          4.3995   -0.6501   -0.0442 H         1 <0>         0.4265
     11 C9          0.6664   -3.2754   -0.0210 C.3       1 <0>        -0.0556
     12 C10         0.2361   -3.5891   -1.4554 C.3       1 <0>         0.0434
     13 H2          1.1200   -3.7379   -2.0756 H         1 <0>         0.1528
     14 C11        -0.6144   -4.8610   -1.4661 C.3       1 <0>         0.0264
     15 O1         -0.9189   -5.2190   -2.8156 O.3       1 <0>        -0.3229
     16 C12        -1.6731   -6.3340   -3.0030 C.ar      1 <0>         0.0702
     17 C13        -2.0064   -6.7503   -4.2858 C.ar      1 <0>        -0.1000
     18 C14        -2.7828   -7.9024   -4.4265 C.ar      1 <0>        -0.0302
     19 C15        -3.1907   -8.5857   -3.2823 C.ar      1 <0>         0.0827
     20 N2         -2.8515   -8.1550   -2.0847 N.ar      1 <0>        -0.4361
     21 C16        -2.1151   -7.0742   -1.9153 C.ar      1 <0>         0.0172
     22 C17        -3.1680   -8.3915   -5.7734 C.ar      1 <0>        -0.0984
     23 C18        -2.7469   -7.6985   -6.9146 C.ar      1 <0>        -0.0524
     24 C19        -3.0920   -8.1342   -8.1595 C.ar      1 <0>        -0.1334
     25 C20        -3.8714   -9.2807   -8.3093 C.ar      1 <0>         0.1451
     26 C21        -4.3001   -9.9857   -7.1693 C.ar      1 <0>        -0.1622
     27 C22        -3.9394   -9.5371   -5.8987 C.ar      1 <0>        -0.0110
     28 C23        -5.0878  -11.1236   -7.6603 C.2       1 <0>         0.1870
     29 N3         -5.0983  -11.0594   -8.9712 N.2       1 <0>        -0.2193
     30 N4         -4.3664   -9.9480   -9.4005 N.pl3     1 <0>        -0.4955
     31 H3         -4.2302   -9.6893  -10.3254 H         1 <0>         0.4479
     32 C24        -5.7469  -12.1521   -6.8309 C.2       1 <0>        -0.1077
     33 C25        -6.9296  -12.8088   -7.0482 C.2       1 <0>        -0.1086
     34 C26        -7.3490  -13.7400   -6.1234 C.2       1 <0>        -0.1610
     35 C27        -6.5814  -13.9782   -5.0293 C.2       1 <0>        -0.1554
     36 S1         -5.2064  -12.8695   -5.2879 S.3       1 <0>         0.0810
     37 N5         -0.5518   -2.4687   -1.9863 N.4       1 <0>        -0.6362
     38 H4         -0.9613    1.8849    0.0259 H         1 <0>         0.1312
     39 H5          1.1388    3.1630    0.0081 H         1 <0>         0.1352
     40 H6          3.3028    2.0064   -0.0198 H         1 <0>         0.1293
     41 H7         -0.9246   -0.5587    0.0082 H         1 <0>         0.1149
     42 H8          3.5346   -3.0459   -0.0490 H         1 <0>         0.1792
     43 H9          1.1742   -4.1414    0.4036 H         1 <0>         0.1218
     44 H10        -0.2127   -3.0396    0.5787 H         1 <0>         0.0998
     45 H11        -0.0618   -5.6715   -0.9910 H         1 <0>         0.1139
     46 H12        -1.5405   -4.6834   -0.9195 H         1 <0>         0.0919
     47 H13        -1.6739   -6.1971   -5.1517 H         1 <0>         0.1479
     48 H14        -3.7918   -9.4777   -3.3786 H         1 <0>         0.1664
     49 H15        -1.8557   -6.7583   -0.9157 H         1 <0>         0.1574
     50 H16        -2.1429   -6.8095   -6.8076 H         1 <0>         0.1344
     51 H17        -2.7612   -7.5900   -9.0317 H         1 <0>         0.1363
     52 H18        -4.2617  -10.0753   -5.0196 H         1 <0>         0.1356
     53 H19        -7.5217  -12.6002   -7.9270 H         1 <0>         0.1404
     54 H20        -8.2770  -14.2736   -6.2670 H         1 <0>         0.1431
     55 H21        -6.7556  -14.6650   -4.2143 H         1 <0>         0.1937
     56 H22        -0.8356   -2.6756   -2.9322 H         1 <0>         0.4392
     57 H23        -1.3700   -2.3311   -1.4122 H         1 <0>         0.4299
     58 H24         0.0090   -1.6300   -1.9793 H         1 <0>         0.4379
@<TRIPOS>BOND
     1    1    6 ar
     2    1    2 ar
     3    1   38 1
     4    2    3 ar
     5    2   39 1
     6    3    4 ar
     7    3   40 1
     8    4    9 1
     9    4    5 ar
    10    5    6 ar
    11    5    7 1
    12    6   41 1
    13    7    8 2
    14    7   11 1
    15    8    9 1
    16    8   42 1
    17    9   10 1
    18   11   12 1
    19   11   43 1
    20   11   44 1
    21   12   13 1
    22   12   14 1
    23   12   37 1
    24   14   15 1
    25   14   45 1
    26   14   46 1
    27   15   16 1
    28   16   21 ar
    29   16   17 ar
    30   17   18 ar
    31   17   47 1
    32   18   19 ar
    33   18   22 1
    34   19   20 ar
    35   19   48 1
    36   20   21 ar
    37   21   49 1
    38   22   27 ar
    39   22   23 ar
    40   23   24 ar
    41   23   50 1
    42   24   25 ar
    43   24   51 1
    44   25   30 1
    45   25   26 ar
    46   26   27 ar
    47   26   28 1
    48   27   52 1
    49   28   29 2
    50   28   32 1
    51   29   30 1
    52   30   31 1
    53   32   36 1
    54   32   33 2
    55   33   34 1
    56   33   53 1
    57   34   35 2
    58   34   54 1
    59   35   36 1
    60   35   55 1
    61   37   56 1
    62   37   57 1
    63   37   58 1
@<TRIPOS>MOLECULE
CHEMBL572907
   58    63     0     0     0
SMALL
USER_CHARGES

@<TRIPOS>ATOM
      1 C1         -0.0165    1.3620    0.0095 C.ar      1 <0>        -0.1191
      2 C2          1.1697    2.0834    0.0021 C.ar      1 <0>        -0.0932
      3 C3          2.3856    1.4362   -0.0134 C.ar      1 <0>        -0.1110
      4 C4          2.4281    0.0456   -0.0212 C.ar      1 <0>         0.0986
      5 C5          1.2234   -0.6807   -0.0132 C.ar      1 <0>        -0.1171
      6 C6          0.0021   -0.0041    0.0020 C.ar      1 <0>        -0.1140
      7 C7          1.6036   -2.0953   -0.0245 C.2       1 <0>        -0.2375
      8 C8          2.9451   -2.1410   -0.0380 C.2       1 <0>         0.1039
      9 N1          3.4551   -0.8713   -0.0363 N.pl3     1 <0>        -0.5844
     10 H1          4.3995   -0.6501   -0.0442 H         1 <0>         0.4265
     11 C9          0.6664   -3.2754   -0.0210 C.3       1 <0>        -0.0555
     12 C10         0.2361   -3.5891   -1.4554 C.3       1 <0>         0.0434
     13 H2          1.1200   -3.7379   -2.0756 H         1 <0>         0.1528
     14 C11        -0.6144   -4.8610   -1.4661 C.3       1 <0>         0.0265
     15 O1         -0.9189   -5.2190   -2.8156 O.3       1 <0>        -0.3230
     16 C12        -1.6731   -6.3340   -3.0030 C.ar      1 <0>         0.0708
     17 C13        -2.0064   -6.7503   -4.2858 C.ar      1 <0>        -0.1018
     18 C14        -2.7833   -7.9020   -4.4264 C.ar      1 <0>        -0.0277
     19 C15        -3.1916   -8.5850   -3.2823 C.ar      1 <0>         0.0810
     20 N2         -2.8527   -8.1542   -2.0847 N.ar      1 <0>        -0.4369
     21 C16        -2.1151   -7.0742   -1.9153 C.ar      1 <0>         0.0156
     22 C17        -3.1686   -8.3911   -5.7736 C.ar      1 <0>        -0.1052
     23 C18        -2.7467   -7.6977   -6.9147 C.ar      1 <0>        -0.0532
     24 C19        -3.0907   -8.1325   -8.1601 C.ar      1 <0>        -0.1371
     25 C20        -3.8703   -9.2782   -8.3114 C.ar      1 <0>         0.1438
     26 C21        -4.3013   -9.9849   -7.1716 C.ar      1 <0>        -0.1698
     27 C22        -3.9399   -9.5355   -5.8982 C.ar      1 <0>        -0.0075
     28 C23        -5.0850  -11.1150   -7.6615 C.2       1 <0>         0.1421
     29 N3         -5.0980  -11.0554   -8.9624 N.2       1 <0>        -0.2422
     30 N4         -4.3666   -9.9467   -9.4001 N.pl3     1 <0>        -0.5035
     31 H3         -4.2324   -9.6914  -10.3263 H         1 <0>         0.4447
     32 C24        -5.7585  -12.1630   -6.8136 C.3       1 <0>        -0.0959
     33 C25        -6.6969  -13.1453   -7.5175 C.3       1 <0>        -0.1603
     34 C26        -5.3307  -13.6179   -7.0164 C.3       1 <0>        -0.1574
     35 N5         -0.5518   -2.4687   -1.9863 N.4       1 <0>        -0.6362
     36 H4         -0.9613    1.8849    0.0259 H         1 <0>         0.1312
     37 H5          1.1388    3.1630    0.0081 H         1 <0>         0.1352
     38 H6          3.3028    2.0064   -0.0198 H         1 <0>         0.1294
     39 H7         -0.9246   -0.5587    0.0082 H         1 <0>         0.1149
     40 H8          3.5346   -3.0459   -0.0490 H         1 <0>         0.1792
     41 H9          1.1742   -4.1414    0.4036 H         1 <0>         0.1218
     42 H10        -0.2127   -3.0396    0.5787 H         1 <0>         0.0998
     43 H11        -0.0618   -5.6715   -0.9910 H         1 <0>         0.1137
     44 H12        -1.5405   -4.6834   -0.9195 H         1 <0>         0.0918
     45 H13        -1.6736   -6.1973   -5.1518 H         1 <0>         0.1473
     46 H14        -3.7927   -9.4771   -3.3788 H         1 <0>         0.1664
     47 H15        -1.8556   -6.7583   -0.9157 H         1 <0>         0.1570
     48 H16        -2.1427   -6.8089   -6.8070 H         1 <0>         0.1319
     49 H17        -2.7588   -7.5879   -9.0316 H         1 <0>         0.1332
     50 H18        -4.2623  -10.0734   -5.0190 H         1 <0>         0.1362
     51 H19        -6.0214  -11.8520   -5.8025 H         1 <0>         0.1298
     52 H20        -7.5775  -13.4807   -6.9696 H         1 <0>         0.1055
     53 H21        -6.8270  -13.0336   -8.5939 H         1 <0>         0.1043
     54 H22        -4.5621  -13.8170   -7.7631 H         1 <0>         0.0977
     55 H23        -5.3125  -14.2642   -6.1388 H         1 <0>         0.1068
     56 H24        -1.3700   -2.3311   -1.4122 H         1 <0>         0.4299
     57 H25         0.0090   -1.6300   -1.9793 H         1 <0>         0.4379
     58 H26        -0.8356   -2.6756   -2.9322 H         1 <0>         0.4392
@<TRIPOS>BOND
     1    1    6 ar
     2    1    2 ar
     3    1   36 1
     4    2    3 ar
     5    2   37 1
     6    3    4 ar
     7    3   38 1
     8    4    9 1
     9    4    5 ar
    10    5    6 ar
    11    5    7 1
    12    6   39 1
    13    7    8 2
    14    7   11 1
    15    8    9 1
    16    8   40 1
    17    9   10 1
    18   11   12 1
    19   11   41 1
    20   11   42 1
    21   12   13 1
    22   12   14 1
    23   12   35 1
    24   14   15 1
    25   14   43 1
    26   14   44 1
    27   15   16 1
    28   16   21 ar
    29   16   17 ar
    30   17   18 ar
    31   17   45 1
    32   18   19 ar
    33   18   22 1
    34   19   20 ar
    35   19   46 1
    36   20   21 ar
    37   21   47 1
    38   22   27 ar
    39   22   23 ar
    40   23   24 ar
    41   23   48 1
    42   24   25 ar
    43   24   49 1
    44   25   30 1
    45   25   26 ar
    46   26   27 ar
    47   26   28 1
    48   27   50 1
    49   28   29 2
    50   28   32 1
    51   29   30 1
    52   30   31 1
    53   32   34 1
    54   32   33 1
    55   32   51 1
    56   33   34 1
    57   33   52 1
    58   33   53 1
    59   34   54 1
    60   34   55 1
    61   35   56 1
    62   35   57 1
    63   35   58 1
@<TRIPOS>MOLECULE
CHEMBL572908
   59    63     0     0     0
SMALL
USER_CHARGES

@<TRIPOS>ATOM
      1 C1         -0.2251    1.9311   -0.6651 C.3       1 <0>        -0.1447
      2 C2          0.0426    0.4887   -0.2306 C.3       1 <0>        -0.0863
      3 C3          0.7269   -0.2541   -1.3492 C.ar      1 <0>         0.1342
      4 C4         -0.0362   -0.8179   -2.3703 C.ar      1 <0>        -0.0539
      5 C5          0.6124   -1.5028   -3.4003 C.ar      1 <0>        -0.0811
      6 C6          1.9981   -1.5920   -3.3605 C.ar      1 <0>         0.0581
      7 C7          2.6841   -1.0026   -2.3078 C.ar      1 <0>         0.0330
      8 N1          2.0397   -0.3588   -1.3541 N.ar      1 <0>        -0.4407
      9 O1          2.6738   -2.2488   -4.3401 O.3       1 <0>        -0.3222
     10 C8          4.0975   -2.2960   -4.2267 C.3       1 <0>         0.0263
     11 C9          4.6780   -3.0709   -5.4113 C.3       1 <0>         0.0435
     12 H1          4.2134   -4.0555   -5.4643 H         1 <0>         0.1529
     13 C10         6.1886   -3.2290   -5.2263 C.3       1 <0>        -0.0554
     14 C11         6.7416   -4.0960   -6.3279 C.2       1 <0>        -0.2378
     15 C12         6.9499   -5.4209   -6.2729 C.2       1 <0>         0.1041
     16 N2          7.4618   -5.8626   -7.4626 N.pl3     1 <0>        -0.5845
     17 H2          7.6936   -6.7831   -7.6620 H         1 <0>         0.4266
     18 C13         7.5989   -4.8057   -8.3344 C.ar      1 <0>         0.0989
     19 C14         7.1478   -3.6537   -7.6641 C.ar      1 <0>        -0.1171
     20 C15         7.1649   -2.4183   -8.3136 C.ar      1 <0>        -0.1142
     21 C16         7.6172   -2.3346   -9.6005 C.ar      1 <0>        -0.1190
     22 C17         8.0594   -3.4686  -10.2675 C.ar      1 <0>        -0.0931
     23 C18         8.0597   -4.6965   -9.6421 C.ar      1 <0>        -0.1109
     24 N3          4.4114   -2.3361   -6.6551 N.4       1 <0>        -0.6362
     25 C19        -1.5144   -0.6927   -2.3630 C.ar      1 <0>        -0.0308
     26 C20        -2.1684   -0.1047   -3.4579 C.ar      1 <0>        -0.1100
     27 C21        -3.5210    0.0233   -3.4779 C.ar      1 <0>        -0.0744
     28 C22        -4.2829   -0.4374   -2.3912 C.ar      1 <0>        -0.1098
     29 C23        -5.6824   -0.3271   -2.3674 C.ar      1 <0>         0.1491
     30 N4         -6.3569   -0.7707   -1.3326 N.ar      1 <0>        -0.4825
     31 C24        -5.7738   -1.3315   -0.2819 C.ar      1 <0>         0.0850
     32 C25        -4.4230   -1.4855   -0.2070 C.ar      1 <0>        -0.1559
     33 C26        -3.6311   -1.0337   -1.2797 C.ar      1 <0>        -0.0208
     34 C27        -2.2365   -1.1612   -1.2802 C.ar      1 <0>        -0.0896
     35 H3          0.7196    2.4206   -0.9018 H         1 <0>         0.0581
     36 H4         -0.8656    1.9319   -1.5470 H         1 <0>         0.0559
     37 H5         -0.7200    2.4684    0.1439 H         1 <0>         0.0682
     38 H6          0.6832    0.4879    0.6513 H         1 <0>         0.0884
     39 H7         -0.9021   -0.0007    0.0060 H         1 <0>         0.0891
     40 H8          0.0511   -1.9517   -4.2065 H         1 <0>         0.1481
     41 H9          3.7614   -1.0688   -2.2711 H         1 <0>         0.1590
     42 H10         4.4957   -1.2813   -4.2259 H         1 <0>         0.0916
     43 H11         4.3716   -2.7946   -3.2970 H         1 <0>         0.1134
     44 H12         6.6636   -2.2487   -5.2623 H         1 <0>         0.0998
     45 H13         6.3896   -3.6950   -4.2616 H         1 <0>         0.1217
     46 H14         6.7443   -6.0458   -5.4164 H         1 <0>         0.1790
     47 H15         6.8217   -1.5317   -7.8012 H         1 <0>         0.1147
     48 H16         7.6303   -1.3786  -10.1027 H         1 <0>         0.1312
     49 H17         8.4132   -3.3867  -11.2846 H         1 <0>         0.1354
     50 H18         8.4047   -5.5733  -10.1700 H         1 <0>         0.1295
     51 H19         4.7943   -2.8471   -7.4363 H         1 <0>         0.4382
     52 H20         3.4152   -2.2317   -6.7771 H         1 <0>         0.4392
     53 H21        -1.5877    0.2512   -4.2960 H         1 <0>         0.1275
     54 H22        -4.0091    0.4784   -4.3271 H         1 <0>         0.1394
     55 H23        -6.2033    0.1226   -3.1998 H         1 <0>         0.1666
     56 H24        -6.3875   -1.6754    0.5376 H         1 <0>         0.1577
     57 H25        -3.9682   -1.9453    0.6580 H         1 <0>         0.1412
     58 H26        -1.7299   -1.6167   -0.4422 H         1 <0>         0.1363
     59 H27         4.8415   -1.4246   -6.6061 H         1 <0>         0.4299
@<TRIPOS>BOND
     1    1    2 1
     2    1   35 1
     3    1   36 1
     4    1   37 1
     5    2    3 1
     6    2   38 1
     7    2   39 1
     8    3    8 ar
     9    3    4 ar
    10    4    5 ar
    11    4   25 1
    12    5    6 ar
    13    5   40 1
    14    6    7 ar
    15    6    9 1
    16    7    8 ar
    17    7   41 1
    18    9   10 1
    19   10   11 1
    20   10   42 1
    21   10   43 1
    22   11   12 1
    23   11   13 1
    24   11   24 1
    25   13   14 1
    26   13   44 1
    27   13   45 1
    28   14   19 1
    29   14   15 2
    30   15   16 1
    31   15   46 1
    32   16   17 1
    33   16   18 1
    34   18   23 ar
    35   18   19 ar
    36   19   20 ar
    37   20   21 ar
    38   20   47 1
    39   21   22 ar
    40   21   48 1
    41   22   23 ar
    42   22   49 1
    43   23   50 1
    44   24   51 1
    45   24   52 1
    46   24   59 1
    47   25   34 ar
    48   25   26 ar
    49   26   27 ar
    50   26   53 1
    51   27   28 ar
    52   27   54 1
    53   28   33 ar
    54   28   29 ar
    55   29   30 ar
    56   29   55 1
    57   30   31 ar
    58   31   32 ar
    59   31   56 1
    60   32   33 ar
    61   32   57 1
    62   33   34 ar
    63   34   58 1
@<TRIPOS>MOLECULE
CHEMBL574995
   57    62     0     0     0
SMALL
USER_CHARGES

@<TRIPOS>ATOM
      1 C1         -0.0165    1.3620    0.0095 C.ar      1 <0>        -0.1192
      2 C2          1.1697    2.0834    0.0021 C.ar      1 <0>        -0.0932
      3 C3          2.3856    1.4362   -0.0134 C.ar      1 <0>        -0.1111
      4 C4          2.4281    0.0456   -0.0212 C.ar      1 <0>         0.0986
      5 C5          1.2234   -0.6807   -0.0132 C.ar      1 <0>        -0.1171
      6 C6          0.0021   -0.0041    0.0020 C.ar      1 <0>        -0.1139
      7 C7          1.6036   -2.0953   -0.0245 C.2       1 <0>        -0.2373
      8 C8          2.9451   -2.1410   -0.0380 C.2       1 <0>         0.1038
      9 N1          3.4551   -0.8713   -0.0363 N.pl3     1 <0>        -0.5845
     10 H1          4.3995   -0.6501   -0.0442 H         1 <0>         0.4265
     11 C9          0.6664   -3.2754   -0.0210 C.3       1 <0>        -0.0556
     12 C10         0.2361   -3.5891   -1.4554 C.3       1 <0>         0.0435
     13 H2          1.1200   -3.7379   -2.0756 H         1 <0>         0.1528
     14 C11        -0.6144   -4.8610   -1.4661 C.3       1 <0>         0.0265
     15 O1         -0.9189   -5.2190   -2.8156 O.3       1 <0>        -0.3230
     16 C12        -1.6731   -6.3340   -3.0030 C.ar      1 <0>         0.0690
     17 C13        -2.0064   -6.7503   -4.2858 C.ar      1 <0>        -0.1000
     18 C14        -2.7833   -7.9021   -4.4264 C.ar      1 <0>        -0.0307
     19 C15        -3.1916   -8.5851   -3.2822 C.ar      1 <0>         0.0849
     20 N2         -2.8527   -8.1542   -2.0847 N.ar      1 <0>        -0.4370
     21 C16        -2.1151   -7.0742   -1.9153 C.ar      1 <0>         0.0173
     22 C17        -3.1686   -8.3911   -5.7734 C.ar      1 <0>        -0.0994
     23 C18        -2.7471   -7.6984   -6.9145 C.ar      1 <0>        -0.0510
     24 C19        -3.0923   -8.1341   -8.1595 C.ar      1 <0>        -0.1336
     25 C20        -3.8725   -9.2800   -8.3092 C.ar      1 <0>         0.1422
     26 C21        -4.3015   -9.9846   -7.1694 C.ar      1 <0>        -0.1431
     27 C22        -3.9404   -9.5364   -5.8987 C.ar      1 <0>        -0.0015
     28 C23        -5.0905  -11.1217   -7.6602 C.2       1 <0>         0.1828
     29 N3         -5.1014  -11.0574   -8.9713 N.2       1 <0>        -0.2094
     30 N4         -4.3685   -9.9467   -9.4006 N.pl3     1 <0>        -0.4862
     31 H3         -4.2325   -9.6878  -10.3255 H         1 <0>         0.4507
     32 C24        -5.7500  -12.1497   -6.8308 C.2       1 <0>         0.1527
     33 N5         -5.7839  -12.2718   -5.5104 N.2       1 <0>        -0.4761
     34 C25        -6.4271  -13.2604   -4.9344 C.2       1 <0>         0.0229
     35 C26        -7.0742  -14.1823   -5.6952 C.2       1 <0>        -0.1866
     36 S1         -6.7249  -13.5611   -7.3355 S.3       1 <0>         0.0733
     37 N6         -0.5518   -2.4687   -1.9863 N.4       1 <0>        -0.6362
     38 H4         -0.9613    1.8849    0.0259 H         1 <0>         0.1312
     39 H5          1.1388    3.1630    0.0081 H         1 <0>         0.1352
     40 H6          3.3028    2.0064   -0.0198 H         1 <0>         0.1293
     41 H7         -0.9246   -0.5587    0.0082 H         1 <0>         0.1150
     42 H8          3.5346   -3.0459   -0.0490 H         1 <0>         0.1792
     43 H9          1.1742   -4.1414    0.4036 H         1 <0>         0.1217
     44 H10        -0.2127   -3.0396    0.5787 H         1 <0>         0.0998
     45 H11        -0.0618   -5.6715   -0.9910 H         1 <0>         0.1137
     46 H12        -1.5405   -4.6834   -0.9195 H         1 <0>         0.0918
     47 H13        -1.6736   -6.1973   -5.1518 H         1 <0>         0.1478
     48 H14        -3.7927   -9.4771   -3.3786 H         1 <0>         0.1686
     49 H15        -1.8556   -6.7583   -0.9157 H         1 <0>         0.1569
     50 H16        -2.1428   -6.8097   -6.8077 H         1 <0>         0.1347
     51 H17        -2.7609   -7.5903   -9.0317 H         1 <0>         0.1374
     52 H18        -4.2630  -10.0744   -5.0196 H         1 <0>         0.1459
     53 H19        -6.4418  -13.3414   -3.8575 H         1 <0>         0.1772
     54 H20        -7.6445  -15.0482   -5.3928 H         1 <0>         0.2062
     55 H21        -1.3700   -2.3311   -1.4122 H         1 <0>         0.4299
     56 H22         0.0090   -1.6300   -1.9793 H         1 <0>         0.4379
     57 H23        -0.8356   -2.6756   -2.9322 H         1 <0>         0.4392
@<TRIPOS>BOND
     1    1    6 ar
     2    1    2 ar
     3    1   38 1
     4    2    3 ar
     5    2   39 1
     6    3    4 ar
     7    3   40 1
     8    4    9 1
     9    4    5 ar
    10    5    6 ar
    11    5    7 1
    12    6   41 1
    13    7    8 2
    14    7   11 1
    15    8    9 1
    16    8   42 1
    17    9   10 1
    18   11   12 1
    19   11   43 1
    20   11   44 1
    21   12   13 1
    22   12   14 1
    23   12   37 1
    24   14   15 1
    25   14   45 1
    26   14   46 1
    27   15   16 1
    28   16   21 ar
    29   16   17 ar
    30   17   18 ar
    31   17   47 1
    32   18   19 ar
    33   18   22 1
    34   19   20 ar
    35   19   48 1
    36   20   21 ar
    37   21   49 1
    38   22   27 ar
    39   22   23 ar
    40   23   24 ar
    41   23   50 1
    42   24   25 ar
    43   24   51 1
    44   25   30 1
    45   25   26 ar
    46   26   27 ar
    47   26   28 1
    48   27   52 1
    49   28   29 2
    50   28   32 1
    51   29   30 1
    52   30   31 1
    53   32   36 1
    54   32   33 2
    55   33   34 1
    56   34   35 2
    57   34   53 1
    58   35   36 1
    59   35   54 1
    60   37   55 1
    61   37   56 1
    62   37   57 1
@<TRIPOS>MOLECULE
CHEMBL594933
   60    65     0     0     0
SMALL
USER_CHARGES

@<TRIPOS>ATOM
      1 C1         -3.2088   -0.1041   -0.3271 C.3       1 <0>        -0.0808
      2 C2         -1.9804   -0.9678   -0.2008 C.2       1 <0>         0.1007
      3 C3         -1.1314   -1.3535   -1.2622 C.ar      1 <0>        -0.1412
      4 C4         -1.1101   -1.1147   -2.6421 C.ar      1 <0>        -0.0655
      5 C5         -0.0903   -1.6735   -3.3968 C.ar      1 <0>         0.1017
      6 N1          0.8534   -2.4234   -2.8296 N.ar      1 <0>        -0.4101
      7 C6          0.8726   -2.6734   -1.5396 C.ar      1 <0>         0.1173
      8 C7         -0.1112   -2.1535   -0.7038 C.ar      1 <0>         0.0817
      9 N2         -0.3665   -2.2257    0.6404 N.pl3     1 <0>        -0.4856
     10 H1          0.1628   -2.7074    1.2951 H         1 <0>         0.4494
     11 N3         -1.5211   -1.4785    0.9058 N.2       1 <0>        -0.2301
     12 C8         -0.0495   -1.4330   -4.8587 C.ar      1 <0>        -0.0233
     13 C9         -0.1679   -0.1396   -5.3684 C.ar      1 <0>        -0.0809
     14 C10        -0.1231    0.0335   -6.7464 C.ar      1 <0>         0.0578
     15 C11         0.0366   -1.0747   -7.5677 C.ar      1 <0>         0.0383
     16 N4          0.1458   -2.2862   -7.0618 N.ar      1 <0>        -0.4412
     17 C12         0.1149   -2.5025   -5.7539 C.ar      1 <0>         0.2166
     18 C13         0.2482   -3.8832   -5.2335 C.2       1 <0>        -0.1426
     19 C14        -0.5360   -4.5049   -4.1597 C.2       1 <0>        -0.1855
     20 C15        -0.0664   -5.7573   -4.0351 C.2       1 <0>        -0.0289
     21 O1          0.9188   -5.9456   -4.9263 O.3       1 <0>        -0.1754
     22 C16         1.1181   -4.8389   -5.6556 C.2       1 <0>         0.0200
     23 O2         -0.2351    1.2764   -7.2856 O.3       1 <0>        -0.3217
     24 C17        -0.1797    1.3729   -8.7103 C.3       1 <0>         0.0259
     25 C18        -0.3217    2.8379   -9.1281 C.3       1 <0>         0.0434
     26 H2         -1.2349    3.2510   -8.6997 H         1 <0>         0.1530
     27 C19        -0.3877    2.9290  -10.6540 C.3       1 <0>        -0.0556
     28 C20        -0.6504    4.3559  -11.0611 C.2       1 <0>        -0.2373
     29 C21        -1.8471    4.9029  -11.3271 C.2       1 <0>         0.1038
     30 N5         -1.6935    6.2204  -11.6633 N.pl3     1 <0>        -0.5846
     31 H3         -2.4163    6.8238  -11.8968 H         1 <0>         0.4265
     32 C22        -0.3604    6.5620  -11.6209 C.ar      1 <0>         0.0988
     33 C23         0.3510    5.4108  -11.2357 C.ar      1 <0>        -0.1171
     34 C24         1.7396    5.4619  -11.1028 C.ar      1 <0>        -0.1139
     35 C25         2.4015    6.6328  -11.3444 C.ar      1 <0>        -0.1192
     36 C26         1.7041    7.7723  -11.7207 C.ar      1 <0>        -0.0932
     37 C27         0.3343    7.7416  -11.8668 C.ar      1 <0>        -0.1111
     38 N6          0.8359    3.6003   -8.6416 N.4       1 <0>        -0.6364
     39 H4         -2.9305    0.9430   -0.2083 H         1 <0>         0.0861
     40 H5         -3.6573   -0.2517   -1.3095 H         1 <0>         0.0826
     41 H6         -3.9272   -0.3790    0.4452 H         1 <0>         0.0850
     42 H7         -1.8725   -0.5083   -3.1084 H         1 <0>         0.1405
     43 H8          1.6584   -3.2872   -1.1246 H         1 <0>         0.1665
     44 H9         -0.2917    0.7061   -4.7083 H         1 <0>         0.1493
     45 H10         0.0716   -0.9413   -8.6388 H         1 <0>         0.1609
     46 H11        -1.3292   -4.0484   -3.5863 H         1 <0>         0.1418
     47 H12        -0.4238   -6.4938   -3.3307 H         1 <0>         0.2032
     48 H13         1.8477   -4.7249   -6.4437 H         1 <0>         0.2060
     49 H14         0.7758    0.9853   -9.0638 H         1 <0>         0.0919
     50 H15        -0.9916    0.7905   -9.1457 H         1 <0>         0.1140
     51 H16         0.5601    2.5985  -11.0789 H         1 <0>         0.0998
     52 H17        -1.1923    2.2922  -11.0215 H         1 <0>         0.1219
     53 H18        -2.7912    4.3804  -11.2826 H         1 <0>         0.1791
     54 H19         2.2888    4.5794  -10.8096 H         1 <0>         0.1150
     55 H20         3.4759    6.6719  -11.2415 H         1 <0>         0.1311
     56 H21         2.2412    8.6904  -11.9075 H         1 <0>         0.1352
     57 H22        -0.1995    8.6339  -12.1589 H         1 <0>         0.1293
     58 H23         0.7422    4.5664   -8.9171 H         1 <0>         0.4379
     59 H24         0.8793    3.5403   -7.6353 H         1 <0>         0.4394
     60 H25         1.6812    3.2179   -9.0382 H         1 <0>         0.4299
@<TRIPOS>BOND
     1    1    2 1
     2    1   39 1
     3    1   40 1
     4    1   41 1
     5    2   11 2
     6    2    3 1
     7    3    8 ar
     8    3    4 ar
     9    4    5 ar
    10    4   42 1
    11    5    6 ar
    12    5   12 1
    13    6    7 ar
    14    7    8 ar
    15    7   43 1
    16    8    9 1
    17    9   10 1
    18    9   11 1
    19   12   17 ar
    20   12   13 ar
    21   13   14 ar
    22   13   44 1
    23   14   15 ar
    24   14   23 1
    25   15   16 ar
    26   15   45 1
    27   16   17 ar
    28   17   18 1
    29   18   22 2
    30   18   19 1
    31   19   20 2
    32   19   46 1
    33   20   21 1
    34   20   47 1
    35   21   22 1
    36   22   48 1
    37   23   24 1
    38   24   25 1
    39   24   49 1
    40   24   50 1
    41   25   26 1
    42   25   27 1
    43   25   38 1
    44   27   28 1
    45   27   51 1
    46   27   52 1
    47   28   33 1
    48   28   29 2
    49   29   30 1
    50   29   53 1
    51   30   31 1
    52   30   32 1
    53   32   37 ar
    54   32   33 ar
    55   33   34 ar
    56   34   35 ar
    57   34   54 1
    58   35   36 ar
    59   35   55 1
    60   36   37 ar
    61   36   56 1
    62   37   57 1
    63   38   58 1
    64   38   59 1
    65   38   60 1
@<TRIPOS>MOLECULE
CHEMBL209638
   55    58     0     0     0
SMALL
USER_CHARGES

@<TRIPOS>ATOM
      1 C1         -0.0170    1.3997    0.0097 C.ar      1 <0>        -0.1141
      2 C2          1.1388    2.1148    0.0025 C.ar      1 <0>        -0.0739
      3 C3          2.3740    1.4464   -0.0129 C.ar      1 <0>        -0.1088
      4 C4          3.5933    2.1425   -0.0202 C.ar      1 <0>         0.1484
      5 N1          4.7260    1.4794   -0.0343 N.ar      1 <0>        -0.4811
      6 C5          4.7827    0.1546   -0.0421 C.ar      1 <0>         0.0854
      7 C6          3.6580   -0.6129   -0.0359 C.ar      1 <0>        -0.1542
      8 C7          2.4039    0.0267   -0.0208 C.ar      1 <0>        -0.0227
      9 C8          1.2024   -0.6920   -0.0132 C.ar      1 <0>        -0.0868
     10 C9          0.0021   -0.0041    0.0020 C.ar      1 <0>        -0.0370
     11 C10        -1.2764   -0.7566    0.0107 C.ar      1 <0>        -0.0475
     12 C11        -2.4982   -0.0791    0.0208 C.ar      1 <0>        -0.0912
     13 C12        -3.6665   -0.8300    0.0287 C.ar      1 <0>         0.0675
     14 C13        -3.5804   -2.2156    0.0264 C.ar      1 <0>         0.0251
     15 N2         -2.4099   -2.8224    0.0169 N.ar      1 <0>        -0.4382
     16 C14        -1.2771   -2.1500    0.0033 C.ar      1 <0>         0.0900
     17 O1         -4.8790   -0.2159    0.0390 O.3       1 <0>        -0.3228
     18 C15        -6.0330   -1.0586    0.0467 C.3       1 <0>         0.0271
     19 C16        -7.2955   -0.1945    0.0578 C.3       1 <0>         0.0355
     20 H1         -7.2559    0.4959    0.9004 H         1 <0>         0.1565
     21 C17        -8.5270   -1.0925    0.1917 C.3       1 <0>        -0.1437
     22 C18        -9.7792   -0.2239    0.3282 C.3       1 <0>        -0.0956
     23 C19        -9.7110    0.5673    1.6359 C.3       1 <0>        -0.1253
     24 C20       -10.9632    1.4358    1.7723 C.3       1 <0>        -0.1224
     25 C21       -12.2051    0.5424    1.7809 C.3       1 <0>        -0.1266
     26 C22       -12.2733   -0.2488    0.4732 C.3       1 <0>        -0.1230
     27 C23       -11.0212   -1.1174    0.3368 C.3       1 <0>        -0.1154
     28 N3         -7.3787    0.5670   -1.1957 N.4       1 <0>        -0.6365
     29 H2         -0.9638    1.9190    0.0261 H         1 <0>         0.1286
     30 H3          1.1075    3.1943    0.0083 H         1 <0>         0.1402
     31 H4          3.5993    3.2225   -0.0147 H         1 <0>         0.1674
     32 H5          5.7482   -0.3293   -0.0540 H         1 <0>         0.1589
     33 H6          3.7266   -1.6907   -0.0425 H         1 <0>         0.1430
     34 H7          1.2125   -1.7719   -0.0195 H         1 <0>         0.1389
     35 H8         -2.5332    1.0003    0.0226 H         1 <0>         0.1500
     36 H9         -4.4854   -2.8050    0.0329 H         1 <0>         0.1585
     37 H10        -0.3388   -2.6846   -0.0094 H         1 <0>         0.1681
     38 H11        -6.0303   -1.6865   -0.8443 H         1 <0>         0.0920
     39 H12        -6.0165   -1.6892    0.9356 H         1 <0>         0.1134
     40 H13        -8.6160   -1.7216   -0.6939 H         1 <0>         0.0971
     41 H14        -8.4233   -1.7219    1.0756 H         1 <0>         0.1190
     42 H15        -9.8349    0.4677   -0.5125 H         1 <0>         0.0663
     43 H16        -9.6552   -0.1244    2.4765 H         1 <0>         0.0766
     44 H17        -8.8262    1.2038    1.6298 H         1 <0>         0.0592
     45 H18       -10.9146    1.9995    2.7040 H         1 <0>         0.0700
     46 H19       -11.0189    2.1275    0.9317 H         1 <0>         0.0624
     47 H20       -12.1494   -0.1492    2.6216 H         1 <0>         0.0661
     48 H21       -13.0972    1.1612    1.8781 H         1 <0>         0.0685
     49 H22       -13.1581   -0.8853    0.4793 H         1 <0>         0.0708
     50 H23       -12.3291    0.4428   -0.3674 H         1 <0>         0.0628
     51 H24       -11.0697   -1.6811   -0.5949 H         1 <0>         0.0685
     52 H25       -10.9654   -1.8090    1.1774 H         1 <0>         0.0730
     53 H26        -8.2114    1.1368   -1.1884 H         1 <0>         0.4365
     54 H27        -6.5666    1.1592   -1.2840 H         1 <0>         0.4419
     55 H28        -7.4154   -0.0721   -1.9756 H         1 <0>         0.4335
@<TRIPOS>BOND
     1    1   10 ar
     2    1    2 ar
     3    1   29 1
     4    2    3 ar
     5    2   30 1
     6    3    8 ar
     7    3    4 ar
     8    4    5 ar
     9    4   31 1
    10    5    6 ar
    11    6    7 ar
    12    6   32 1
    13    7    8 ar
    14    7   33 1
    15    8    9 ar
    16    9   10 ar
    17    9   34 1
    18   10   11 1
    19   11   16 ar
    20   11   12 ar
    21   12   13 ar
    22   12   35 1
    23   13   14 ar
    24   13   17 1
    25   14   15 ar
    26   14   36 1
    27   15   16 ar
    28   16   37 1
    29   17   18 1
    30   18   19 1
    31   18   38 1
    32   18   39 1
    33   19   20 1
    34   19   21 1
    35   19   28 1
    36   21   22 1
    37   21   40 1
    38   21   41 1
    39   22   27 1
    40   22   23 1
    41   22   42 1
    42   23   24 1
    43   23   43 1
    44   23   44 1
    45   24   25 1
    46   24   45 1
    47   24   46 1
    48   25   26 1
    49   25   47 1
    50   25   48 1
    51   26   27 1
    52   26   49 1
    53   26   50 1
    54   27   51 1
    55   27   52 1
    56   28   53 1
    57   28   54 1
    58   28   55 1
@<TRIPOS>MOLECULE
CHEMBL1081119
   49    52     0     0     0
SMALL
USER_CHARGES

@<TRIPOS>ATOM
      1 C1         -0.0167    1.3781    0.0096 C.ar      1 <0>        -0.1410
      2 C2          1.1709    2.0855    0.0021 C.ar      1 <0>        -0.0582
      3 C3          2.3773    1.4107   -0.0130 C.ar      1 <0>        -0.1621
      4 C4          2.3960    0.0285   -0.0201 C.ar      1 <0>        -0.0559
      5 C5          1.2085   -0.6789   -0.0117 C.ar      1 <0>        -0.1018
      6 C6          0.0021   -0.0041    0.0020 C.ar      1 <0>        -0.0996
      7 C7         -1.2926   -0.7753    0.0107 C.3       1 <0>        -0.0998
      8 C8         -1.7450   -1.0285   -1.4288 C.3       1 <0>         0.0259
      9 H1         -0.9463   -1.5264   -1.9784 H         1 <0>         0.1579
     10 C9         -2.9907   -1.9168   -1.4231 C.3       1 <0>         0.1191
     11 N1         -3.4936   -2.0615   -2.7914 N.pl3     1 <0>        -0.6999
     12 C10        -4.6177   -2.8240   -3.0365 C.2       1 <0>         0.4041
     13 N2         -5.3318   -3.4654   -2.1407 N.2       1 <0>        -0.3143
     14 N3         -6.3063   -4.0706   -2.7234 N.2       1 <0>        -0.2455
     15 C11        -6.2533   -3.8401   -4.0128 C.2       1 <0>         0.2142
     16 O1         -5.1862   -3.0416   -4.2369 O.3       1 <0>        -0.2342
     17 C12        -7.1903   -4.3539   -5.0321 C.ar      1 <0>        -0.0108
     18 C13        -6.9988   -4.0230   -6.3860 C.ar      1 <0>        -0.1030
     19 C14        -7.8453   -4.4819   -7.3434 C.ar      1 <0>        -0.0733
     20 C15        -8.9308   -5.2997   -6.9848 C.ar      1 <0>        -0.0991
     21 C16        -9.8304   -5.7969   -7.9405 C.ar      1 <0>         0.1474
     22 N4        -10.8316   -6.5582   -7.5646 N.ar      1 <0>        -0.4756
     23 C17       -11.0448   -6.8916   -6.2989 C.ar      1 <0>         0.0855
     24 C18       -10.2306   -6.4616   -5.2959 C.ar      1 <0>        -0.1457
     25 C19        -9.1340   -5.6402   -5.6212 C.ar      1 <0>        -0.0285
     26 C20        -8.2485   -5.1632   -4.6478 C.ar      1 <0>        -0.0427
     27 N5         -2.0599    0.2523   -2.0756 N.4       1 <0>        -0.6411
     28 C21         3.6720    2.1819   -0.0222 C.3       1 <0>         0.5035
     29 F1          4.0857    2.4144    1.2938 F         1 <0>        -0.1686
     30 F2          4.6506    1.4423   -0.6949 F         1 <0>        -0.1714
     31 F3          3.4816    3.4050   -0.6742 F         1 <0>        -0.1728
     32 H2         -0.9591    1.9053    0.0259 H         1 <0>         0.1375
     33 H3          1.1563    3.1654    0.0076 H         1 <0>         0.1473
     34 H4          3.3385   -0.4987   -0.0326 H         1 <0>         0.1481
     35 H5          1.2231   -1.7588   -0.0179 H         1 <0>         0.1456
     36 H6         -1.1443   -1.7285    0.5180 H         1 <0>         0.1349
     37 H7         -2.0551   -0.1993    0.5352 H         1 <0>         0.1124
     38 H8         -2.7351   -2.8985   -1.0242 H         1 <0>         0.1248
     39 H9         -3.7596   -1.4603   -0.7997 H         1 <0>         0.1078
     40 H10        -3.0366   -1.6214   -3.5252 H         1 <0>         0.4108
     41 H11        -6.1668   -3.3947   -6.6678 H         1 <0>         0.1331
     42 H12        -7.6851   -4.2187   -8.3785 H         1 <0>         0.1457
     43 H13        -9.6993   -5.5531   -8.9845 H         1 <0>         0.1698
     44 H14       -11.8880   -7.5216   -6.0569 H         1 <0>         0.1612
     45 H15       -10.4222   -6.7444   -4.2714 H         1 <0>         0.1465
     46 H16        -8.3904   -5.4191   -3.6082 H         1 <0>         0.1514
     47 H17        -1.2384    0.8381   -2.0794 H         1 <0>         0.4394
     48 H18        -2.3583    0.0853   -3.0249 H         1 <0>         0.4326
     49 H19        -2.7994    0.7132   -1.5668 H         1 <0>         0.4385
@<TRIPOS>BOND
     1    1    6 ar
     2    1    2 ar
     3    1   32 1
     4    2    3 ar
     5    2   33 1
     6    3    4 ar
     7    3   28 1
     8    4    5 ar
     9    4   34 1
    10    5    6 ar
    11    5   35 1
    12    6    7 1
    13    7    8 1
    14    7   36 1
    15    7   37 1
    16    8    9 1
    17    8   10 1
    18    8   27 1
    19   10   11 1
    20   10   38 1
    21   10   39 1
    22   11   12 1
    23   11   40 1
    24   12   16 1
    25   12   13 2
    26   13   14 1
    27   14   15 2
    28   15   16 1
    29   15   17 1
    30   17   26 ar
    31   17   18 ar
    32   18   19 ar
    33   18   41 1
    34   19   20 ar
    35   19   42 1
    36   20   25 ar
    37   20   21 ar
    38   21   22 ar
    39   21   43 1
    40   22   23 ar
    41   23   24 ar
    42   23   44 1
    43   24   25 ar
    44   24   45 1
    45   25   26 ar
    46   26   46 1
    47   27   47 1
    48   27   48 1
    49   27   49 1
    50   28   29 1
    51   28   30 1
    52   28   31 1
@<TRIPOS>MOLECULE
CHEMBL381785
   55    58     0     0     0
SMALL
USER_CHARGES

@<TRIPOS>ATOM
      1 C1          0.5577    1.5116   -0.1483 C.3       1 <0>        -0.1732
      2 C2          0.5857    0.0049   -0.1609 C.2       1 <0>         0.5122
      3 O1          1.1352   -0.5990    0.7360 O.2       1 <0>        -0.5212
      4 N1          0.0001   -0.6716   -1.1688 N.am      1 <0>        -0.6780
      5 C3          0.1087   -2.0642   -1.2321 C.ar      1 <0>         0.1619
      6 C4          0.1181   -2.8133   -0.0616 C.ar      1 <0>        -0.1184
      7 C5          0.2251   -4.1865   -0.1215 C.ar      1 <0>        -0.0778
      8 C6          0.3234   -4.8236   -1.3575 C.ar      1 <0>        -0.0790
      9 C7          0.3133   -4.0702   -2.5303 C.ar      1 <0>        -0.0812
     10 C8          0.2013   -2.6976   -2.4657 C.ar      1 <0>        -0.1446
     11 C9          0.4392   -6.3011   -1.4246 C.ar      1 <0>        -0.0357
     12 C10         0.5441   -6.9490   -2.6578 C.ar      1 <0>        -0.0989
     13 C11         0.6500   -8.3337   -2.6663 C.ar      1 <0>         0.0688
     14 C12         0.6481   -9.0200   -1.4595 C.ar      1 <0>         0.0187
     15 N2          0.5470   -8.3762   -0.3134 N.ar      1 <0>        -0.4382
     16 C13         0.4507   -7.0635   -0.2583 C.ar      1 <0>         0.0849
     17 O2          0.7539   -9.0086   -3.8415 O.3       1 <0>        -0.3230
     18 C14         0.8590  -10.4317   -3.7653 C.3       1 <0>         0.0263
     19 C15         0.9662  -11.0116   -5.1771 C.3       1 <0>         0.0436
     20 H1          0.1217  -10.6696   -5.7754 H         1 <0>         0.1528
     21 C16         0.9532  -12.5397   -5.1031 C.3       1 <0>        -0.0556
     22 C17         0.9349  -13.1100   -6.4979 C.2       1 <0>        -0.2374
     23 C18        -0.1506  -13.4842   -7.1934 C.2       1 <0>         0.1039
     24 N3          0.2224  -13.9545   -8.4230 N.pl3     1 <0>        -0.5846
     25 H2         -0.3872  -14.2825   -9.1026 H         1 <0>         0.4265
     26 C19         1.5918  -13.8929   -8.5522 C.ar      1 <0>         0.0987
     27 C20         2.0978  -13.3553   -7.3544 C.ar      1 <0>        -0.1171
     28 C21         3.4727  -13.1699   -7.2002 C.ar      1 <0>        -0.1140
     29 C22         4.3212  -13.5088   -8.2165 C.ar      1 <0>        -0.1191
     30 C23         3.8268  -14.0356   -9.4015 C.ar      1 <0>        -0.0932
     31 C24         2.4740  -14.2356   -9.5714 C.ar      1 <0>        -0.1110
     32 N4          2.2197  -10.5620   -5.7972 N.4       1 <0>        -0.6362
     33 H3          1.4332    1.8956   -0.6718 H         1 <0>         0.1008
     34 H4         -0.3462    1.8623   -0.6463 H         1 <0>         0.0851
     35 H5          0.5659    1.8665    0.8822 H         1 <0>         0.1011
     36 H6         -0.4967   -0.1924   -1.8503 H         1 <0>         0.4151
     37 H7          0.0419   -2.3193    0.8958 H         1 <0>         0.1464
     38 H8          0.2331   -4.7682    0.7884 H         1 <0>         0.1335
     39 H9          0.3898   -4.5616   -3.4890 H         1 <0>         0.1283
     40 H10         0.1893   -2.1138   -3.3742 H         1 <0>         0.1322
     41 H11         0.5424   -6.3877   -3.5805 H         1 <0>         0.1475
     42 H12         0.7302  -10.0969   -1.4595 H         1 <0>         0.1575
     43 H13         0.3751   -6.5733    0.7011 H         1 <0>         0.1674
     44 H14         1.7475  -10.7003   -3.1938 H         1 <0>         0.0918
     45 H15        -0.0256  -10.8355   -3.2728 H         1 <0>         0.1138
     46 H16         1.8451  -12.8858   -4.5808 H         1 <0>         0.0999
     47 H17         0.0653  -12.8699   -4.5639 H         1 <0>         0.1218
     48 H18        -1.1676  -13.4234   -6.8352 H         1 <0>         0.1791
     49 H19         3.8645  -12.7598   -6.2811 H         1 <0>         0.1149
     50 H20         5.3849  -13.3652   -8.0967 H         1 <0>         0.1312
     51 H21         4.5098  -14.2980  -10.1959 H         1 <0>         0.1353
     52 H22         2.0990  -14.6450  -10.4977 H         1 <0>         0.1294
     53 H23         2.2904  -10.9444   -6.7283 H         1 <0>         0.4379
     54 H24         2.2282   -9.5542   -5.8460 H         1 <0>         0.4392
     55 H25         3.0014  -10.8785   -5.2434 H         1 <0>         0.4300
@<TRIPOS>BOND
     1    1    2 1
     2    1   33 1
     3    1   34 1
     4    1   35 1
     5    2    3 2
     6    2    4 am
     7    4    5 1
     8    4   36 1
     9    5   10 ar
    10    5    6 ar
    11    6    7 ar
    12    6   37 1
    13    7    8 ar
    14    7   38 1
    15    8    9 ar
    16    8   11 1
    17    9   10 ar
    18    9   39 1
    19   10   40 1
    20   11   16 ar
    21   11   12 ar
    22   12   13 ar
    23   12   41 1
    24   13   14 ar
    25   13   17 1
    26   14   15 ar
    27   14   42 1
    28   15   16 ar
    29   16   43 1
    30   17   18 1
    31   18   19 1
    32   18   44 1
    33   18   45 1
    34   19   20 1
    35   19   21 1
    36   19   32 1
    37   21   22 1
    38   21   46 1
    39   21   47 1
    40   22   27 1
    41   22   23 2
    42   23   24 1
    43   23   48 1
    44   24   25 1
    45   24   26 1
    46   26   31 ar
    47   26   27 ar
    48   27   28 ar
    49   28   29 ar
    50   28   49 1
    51   29   30 ar
    52   29   50 1
    53   30   31 ar
    54   30   51 1
    55   31   52 1
    56   32   53 1
    57   32   54 1
    58   32   55 1
@<TRIPOS>MOLECULE
CHEMBL1173697
   44    47     0     0     0
SMALL
USER_CHARGES

@<TRIPOS>ATOM
      1 C1         -3.1726    0.2109    3.0042 C.3       1 <0>        -0.0794
      2 C2         -2.5829   -1.0624    2.4547 C.2       1 <0>        -0.1342
      3 C3         -3.2567   -2.1679    2.0976 C.2       1 <0>         0.0501
      4 N1         -2.3806   -3.1194    1.6429 N.pl3     1 <0>        -0.5717
      5 H1         -2.6319   -4.0020    1.3285 H         1 <0>         0.4240
      6 C4         -1.1002   -2.6414    1.6974 C.ar      1 <0>         0.3227
      7 C5         -1.1682   -1.3295    2.2021 C.ar      1 <0>        -0.2035
      8 C6          0.0231   -0.6039    2.3531 C.ar      1 <0>         0.4990
      9 N2          1.1665   -1.1891    2.0081 N.ar      1 <0>        -0.5520
     10 C7          1.1846   -2.4221    1.5349 C.ar      1 <0>         0.3290
     11 N3          0.0938   -3.1420    1.3845 N.ar      1 <0>        -0.5364
     12 N4          0.0088    0.6877    2.8479 N.pl3     1 <0>        -0.6685
     13 C8         -0.2221    1.9090    2.0551 C.3       1 <0>         0.1366
     14 C9         -0.7506    2.9493    3.0740 C.3       1 <0>        -0.1489
     15 C10         0.0878    2.6053    4.3335 C.3       1 <0>         0.1430
     16 H2         -0.4406    2.8989    5.2405 H         1 <0>         0.1039
     17 C11         0.2150    1.0695    4.2526 C.3       1 <0>         0.1329
     18 N5          1.4033    3.2469    4.2716 N.pl3     1 <0>        -1.1061
     19 S1          1.6579    4.6901    5.0429 S.o2      1 <0>         2.6933
     20 O1          3.0187    5.0342    4.8219 O.2       1 <0>        -0.9551
     21 O2          0.5856    5.5447    4.6697 O.2       1 <0>        -0.9510
     22 C12         1.4877    4.3940    6.7715 C.ar      1 <0>        -0.6783
     23 C13         0.2504    4.5177    7.3754 C.ar      1 <0>        -0.0251
     24 C14         0.1168    4.2854    8.7315 C.ar      1 <0>        -0.1394
     25 C15         1.2205    3.9290    9.4837 C.ar      1 <0>        -0.0623
     26 C16         2.4576    3.8044    8.8796 C.ar      1 <0>        -0.1393
     27 C17         2.5903    4.0325    7.5227 C.ar      1 <0>        -0.0185
     28 H3         -3.3280    0.9199    2.1910 H         1 <0>         0.0665
     29 H4         -4.1270   -0.0077    3.4831 H         1 <0>         0.0643
     30 H5         -2.4892    0.6416    3.7361 H         1 <0>         0.0702
     31 H6         -4.3281   -2.2891    2.1592 H         1 <0>         0.1824
     32 H7          2.1348   -2.8598    1.2668 H         1 <0>         0.2007
     33 H8          0.7109    2.2543    1.6097 H         1 <0>         0.0571
     34 H9         -0.9671    1.7237    1.2812 H         1 <0>         0.0662
     35 H10        -0.5482    3.9654    2.7355 H         1 <0>         0.0974
     36 H11        -1.8147    2.8064    3.2620 H         1 <0>         0.0913
     37 H12        -0.5426    0.5994    4.8796 H         1 <0>         0.0679
     38 H13         1.2097    0.7643    4.5775 H         1 <0>         0.0659
     39 H14         2.1253    2.8265    3.7788 H         1 <0>         0.4235
     40 H15        -0.6119    4.7961    6.7877 H         1 <0>         0.1410
     41 H16        -0.8497    4.3827    9.2034 H         1 <0>         0.1342
     42 H17         1.1163    3.7482   10.5433 H         1 <0>         0.1319
     43 H18         3.3200    3.5263    9.4673 H         1 <0>         0.1340
     44 H19         3.5562    3.9315    7.0500 H         1 <0>         0.1406
@<TRIPOS>BOND
     1    1    2 1
     2    1   28 1
     3    1   29 1
     4    1   30 1
     5    2    7 1
     6    2    3 2
     7    3    4 1
     8    3   31 1
     9    4    5 1
    10    4    6 1
    11    6   11 ar
    12    6    7 ar
    13    7    8 ar
    14    8    9 ar
    15    8   12 1
    16    9   10 ar
    17   10   11 ar
    18   10   32 1
    19   12   17 1
    20   12   13 1
    21   13   14 1
    22   13   33 1
    23   13   34 1
    24   14   15 1
    25   14   35 1
    26   14   36 1
    27   15   16 1
    28   15   17 1
    29   15   18 1
    30   17   37 1
    31   17   38 1
    32   18   19 1
    33   18   39 1
    34   19   20 2
    35   19   21 2
    36   19   22 1
    37   22   27 ar
    38   22   23 ar
    39   23   24 ar
    40   23   40 1
    41   24   25 ar
    42   24   41 1
    43   25   26 ar
    44   25   42 1
    45   26   27 ar
    46   26   43 1
    47   27   44 1
@<TRIPOS>MOLECULE
CHEMBL210034
   75    80     0     0     0
SMALL
USER_CHARGES

@<TRIPOS>ATOM
      1 C1         -0.0187    1.5258    0.0104 C.3       1 <0>        -0.1483
      2 C2          0.0021   -0.0041    0.0020 C.3       1 <0>        -0.0292
      3 C3          0.7421   -0.5109    1.2415 C.3       1 <0>        -0.1534
      4 C4         -1.4333   -0.5336    0.0129 C.3       1 <0>        -0.0844
      5 C5         -2.1387   -0.0476    1.2528 C.ar      1 <0>        -0.0746
      6 C6         -2.0930   -0.7979    2.4129 C.ar      1 <0>        -0.1163
      7 C7         -2.7400   -0.3521    3.5502 C.ar      1 <0>        -0.1189
      8 C8         -3.4324    0.8442    3.5275 C.ar      1 <0>        -0.1235
      9 C9         -3.4773    1.5948    2.3676 C.ar      1 <0>        -0.1187
     10 C10        -2.8267    1.1511    1.2315 C.ar      1 <0>        -0.1155
     11 C11         0.7182   -0.4975   -1.2568 C.3       1 <0>        -0.0758
     12 C12         2.1085    0.0900   -1.3399 C.ar      1 <0>        -0.1239
     13 C13         3.2103   -0.0015   -0.5234 C.ar      1 <0>        -0.0451
     14 C14         4.3853    0.6677   -0.8662 C.ar      1 <0>        -0.0838
     15 C15         4.4299    1.4243   -2.0363 C.ar      1 <0>        -0.0641
     16 C16         3.3219    1.5109   -2.8489 C.ar      1 <0>        -0.1376
     17 C17         2.1456    0.8426   -2.5084 C.ar      1 <0>         0.1663
     18 N1          0.9141    0.7806   -3.1603 N.am      1 <0>        -0.6609
     19 C18         0.0252    0.0207   -2.4989 C.2       1 <0>         0.5342
     20 O1         -1.1179   -0.2073   -2.8341 O.2       1 <0>        -0.4818
     21 C19         5.5796    0.5754    0.0091 C.ar      1 <0>        -0.0332
     22 C20         6.7577    1.2477   -0.3253 C.ar      1 <0>        -0.0988
     23 C21         7.8474    1.1289    0.5274 C.ar      1 <0>         0.0702
     24 C22         7.7292    0.3529    1.6726 C.ar      1 <0>         0.0192
     25 N2          6.6018   -0.2686    1.9572 N.ar      1 <0>        -0.4370
     26 C23         5.5417   -0.1787    1.1803 C.ar      1 <0>         0.0841
     27 O2          9.0152    1.7640    0.2442 O.3       1 <0>        -0.3228
     28 C24        10.0889    1.5916    1.1712 C.3       1 <0>         0.0264
     29 C25        11.3108    2.3753    0.6879 C.3       1 <0>         0.0434
     30 H1         11.5603    2.0690   -0.3280 H         1 <0>         0.1529
     31 C26        12.4968    2.0917    1.6119 C.3       1 <0>        -0.0555
     32 C27        13.7302    2.7648    1.0672 C.2       1 <0>        -0.2377
     33 C28        14.6620    2.2067    0.2783 C.2       1 <0>         0.1040
     34 N3         15.6349    3.1231   -0.0149 N.pl3     1 <0>        -0.5845
     35 H2         16.4125    2.9523   -0.5689 H         1 <0>         0.4265
     36 C29        15.3455    4.3239    0.5936 C.ar      1 <0>         0.0987
     37 C30        14.1364    4.1540    1.2929 C.ar      1 <0>        -0.1171
     38 C31        13.5898    5.2207    2.0085 C.ar      1 <0>        -0.1141
     39 C32        14.2311    6.4274    2.0230 C.ar      1 <0>        -0.1190
     40 C33        15.4218    6.6013    1.3314 C.ar      1 <0>        -0.0932
     41 C34        15.9837    5.5593    0.6263 C.ar      1 <0>        -0.1109
     42 N4         11.0090    3.8129    0.7057 N.4       1 <0>        -0.6363
     43 H3          1.0039    1.9031    0.0027 H         1 <0>         0.0575
     44 H4         -0.5459    1.8868   -0.8726 H         1 <0>         0.0506
     45 H5         -0.5289    1.8773    0.9072 H         1 <0>         0.0706
     46 H6          0.2319   -0.1594    2.1383 H         1 <0>         0.0713
     47 H7          0.7568   -1.6008    1.2356 H         1 <0>         0.0613
     48 H8          1.7647   -0.1336    1.2338 H         1 <0>         0.0614
     49 H9         -1.9605   -0.1726   -0.8702 H         1 <0>         0.0912
     50 H10        -1.4185   -1.6235    0.0069 H         1 <0>         0.0764
     51 H11        -1.5520   -1.7325    2.4307 H         1 <0>         0.1209
     52 H12        -2.7048   -0.9386    4.4564 H         1 <0>         0.1213
     53 H13        -3.9385    1.1921    4.4159 H         1 <0>         0.1207
     54 H14        -4.0185    2.5293    2.3498 H         1 <0>         0.1207
     55 H15        -2.8587    1.7394    0.3264 H         1 <0>         0.1185
     56 H16         0.7602   -1.5866   -1.2691 H         1 <0>         0.1290
     57 H17         3.1664   -0.5896    0.3814 H         1 <0>         0.1397
     58 H18         5.3370    1.9447   -2.3062 H         1 <0>         0.1327
     59 H19         3.3634    2.0990   -3.7537 H         1 <0>         0.1336
     60 H20         0.7213    1.2346   -3.9955 H         1 <0>         0.4165
     61 H21         6.8195    1.8439   -1.2236 H         1 <0>         0.1479
     62 H22         8.5731    0.2566    2.3396 H         1 <0>         0.1576
     63 H23         4.6351   -0.6992    1.4514 H         1 <0>         0.1658
     64 H24         9.7854    1.9599    2.1512 H         1 <0>         0.0920
     65 H25        10.3408    0.5335    1.2427 H         1 <0>         0.1140
     66 H26        12.2819    2.4783    2.6081 H         1 <0>         0.0999
     67 H27        12.6646    1.0161    1.6680 H         1 <0>         0.1218
     68 H28        14.6463    1.1854   -0.0726 H         1 <0>         0.1791
     69 H29        12.6632    5.0929    2.5484 H         1 <0>         0.1149
     70 H30        13.8078    7.2524    2.5767 H         1 <0>         0.1312
     71 H31        15.9165    7.5611    1.3518 H         1 <0>         0.1353
     72 H32        16.9100    5.7049    0.0904 H         1 <0>         0.1294
     73 H33        10.7780    4.0964    1.6461 H         1 <0>         0.4299
     74 H34        11.8148    4.3297    0.3870 H         1 <0>         0.4381
     75 H35        10.2269    3.9999    0.0964 H         1 <0>         0.4391
@<TRIPOS>BOND
     1    1    2 1
     2    1   43 1
     3    1   44 1
     4    1   45 1
     5    2    3 1
     6    2    4 1
     7    2   11 1
     8    3   46 1
     9    3   47 1
    10    3   48 1
    11    4    5 1
    12    4   49 1
    13    4   50 1
    14    5   10 ar
    15    5    6 ar
    16    6    7 ar
    17    6   51 1
    18    7    8 ar
    19    7   52 1
    20    8    9 ar
    21    8   53 1
    22    9   10 ar
    23    9   54 1
    24   10   55 1
    25   11   19 1
    26   11   12 1
    27   11   56 1
    28   12   17 ar
    29   12   13 ar
    30   13   14 ar
    31   13   57 1
    32   14   15 ar
    33   14   21 1
    34   15   16 ar
    35   15   58 1
    36   16   17 ar
    37   16   59 1
    38   17   18 1
    39   18   19 am
    40   18   60 1
    41   19   20 2
    42   21   26 ar
    43   21   22 ar
    44   22   23 ar
    45   22   61 1
    46   23   24 ar
    47   23   27 1
    48   24   25 ar
    49   24   62 1
    50   25   26 ar
    51   26   63 1
    52   27   28 1
    53   28   29 1
    54   28   64 1
    55   28   65 1
    56   29   30 1
    57   29   31 1
    58   29   42 1
    59   31   32 1
    60   31   66 1
    61   31   67 1
    62   32   37 1
    63   32   33 2
    64   33   34 1
    65   33   68 1
    66   34   35 1
    67   34   36 1
    68   36   41 ar
    69   36   37 ar
    70   37   38 ar
    71   38   39 ar
    72   38   69 1
    73   39   40 ar
    74   39   70 1
    75   40   41 ar
    76   40   71 1
    77   41   72 1
    78   42   73 1
    79   42   74 1
    80   42   75 1
@<TRIPOS>MOLECULE
CHEMBL210034
   75    80     0     0     0
SMALL
USER_CHARGES

@<TRIPOS>ATOM
      1 C1         -0.0187    1.5258    0.0104 C.3       1 <0>        -0.1533
      2 C2          0.0021   -0.0041    0.0020 C.3       1 <0>        -0.0293
      3 C3          0.7421   -0.5109    1.2415 C.3       1 <0>        -0.1487
      4 C4         -1.4333   -0.5336    0.0129 C.3       1 <0>        -0.0841
      5 C5         -2.1387   -0.0476    1.2528 C.ar      1 <0>        -0.0748
      6 C6         -2.0930   -0.7979    2.4129 C.ar      1 <0>        -0.1154
      7 C7         -2.7400   -0.3521    3.5502 C.ar      1 <0>        -0.1186
      8 C8         -3.4324    0.8442    3.5275 C.ar      1 <0>        -0.1234
      9 C9         -3.4773    1.5948    2.3676 C.ar      1 <0>        -0.1189
     10 C10        -2.8267    1.1511    1.2315 C.ar      1 <0>        -0.1163
     11 C11         0.7182   -0.4975   -1.2568 C.3       1 <0>        -0.0756
     12 C12         2.1673   -0.0674   -1.2448 C.ar      1 <0>        -0.1239
     13 C13         2.7744    1.1656   -1.2297 C.ar      1 <0>        -0.0451
     14 C14         4.1666    1.2533   -1.2218 C.ar      1 <0>        -0.0838
     15 C15         4.9296    0.0866   -1.2293 C.ar      1 <0>        -0.0641
     16 C16         4.3138   -1.1447   -1.2445 C.ar      1 <0>        -0.1376
     17 C17         2.9217   -1.2352   -1.2524 C.ar      1 <0>         0.1663
     18 N1          2.0834   -2.3499   -1.2680 N.am      1 <0>        -0.6609
     19 C18         0.7837   -2.0098   -1.2715 C.2       1 <0>         0.5342
     20 O1         -0.1601   -2.7716   -1.2841 O.2       1 <0>        -0.4818
     21 C19         4.8310    2.5797   -1.2059 C.ar      1 <0>        -0.0331
     22 C20         6.2247    2.6749   -1.2038 C.ar      1 <0>        -0.0989
     23 C21         6.7976    3.9399   -1.1887 C.ar      1 <0>         0.0702
     24 C22         5.9724    5.0564   -1.1763 C.ar      1 <0>         0.0192
     25 N2          4.6601    4.9297   -1.1784 N.ar      1 <0>        -0.4370
     26 C23         4.0744    3.7499   -1.1988 C.ar      1 <0>         0.0841
     27 O2          8.1492    4.0832   -1.1855 O.3       1 <0>        -0.3227
     28 C24         8.6600    5.4177   -1.1697 C.3       1 <0>         0.0264
     29 C25        10.1895    5.3783   -1.1684 C.3       1 <0>         0.0434
     30 H1         10.5366    4.7701   -0.3331 H         1 <0>         0.1529
     31 C26        10.7362    6.8001   -1.0258 C.3       1 <0>        -0.0555
     32 C27        12.2373    6.7510   -0.9012 C.2       1 <0>        -0.2376
     33 C28        12.9438    6.7408    0.2401 C.2       1 <0>         0.1040
     34 N3         14.2823    6.6924   -0.0401 N.pl3     1 <0>        -0.5845
     35 H2         14.9902    6.6764    0.6229 H         1 <0>         0.4265
     36 C29        14.4746    6.6697   -1.4033 C.ar      1 <0>         0.0988
     37 C30        13.2018    6.6990   -2.0025 C.ar      1 <0>        -0.1171
     38 C31        13.0862    6.6792   -3.3935 C.ar      1 <0>        -0.1141
     39 C32        14.2115    6.6278   -4.1671 C.ar      1 <0>        -0.1190
     40 C33        15.4691    6.5945   -3.5809 C.ar      1 <0>        -0.0932
     41 C34        15.6065    6.6226   -2.2101 C.ar      1 <0>        -0.1110
     42 N4         10.6653    4.7949   -2.4299 N.4       1 <0>        -0.6363
     43 H3          1.0039    1.9031    0.0027 H         1 <0>         0.0614
     44 H4         -0.5459    1.8868   -0.8726 H         1 <0>         0.0612
     45 H5         -0.5289    1.8773    0.9072 H         1 <0>         0.0714
     46 H6          0.2319   -0.1594    2.1383 H         1 <0>         0.0708
     47 H7          0.7568   -1.6008    1.2356 H         1 <0>         0.0506
     48 H8          1.7647   -0.1336    1.2338 H         1 <0>         0.0577
     49 H9         -1.9605   -0.1726   -0.8702 H         1 <0>         0.0762
     50 H10        -1.4185   -1.6235    0.0069 H         1 <0>         0.0911
     51 H11        -1.5520   -1.7325    2.4307 H         1 <0>         0.1185
     52 H12        -2.7048   -0.9386    4.4564 H         1 <0>         0.1208
     53 H13        -3.9385    1.1921    4.4159 H         1 <0>         0.1207
     54 H14        -4.0185    2.5293    2.3498 H         1 <0>         0.1213
     55 H15        -2.8587    1.7394    0.3264 H         1 <0>         0.1208
     56 H16         0.2154   -0.1282   -2.1506 H         1 <0>         0.1289
     57 H17         2.1752    2.0642   -1.2242 H         1 <0>         0.1397
     58 H18         6.0078    0.1488   -1.2236 H         1 <0>         0.1327
     59 H19         4.9111   -2.0445   -1.2506 H         1 <0>         0.1336
     60 H20         2.4024   -3.2659   -1.2757 H         1 <0>         0.4165
     61 H21         6.8407    1.7878   -1.2132 H         1 <0>         0.1479
     62 H22         6.4119    6.0429   -1.1646 H         1 <0>         0.1576
     63 H23         2.9961    3.6888   -1.2048 H         1 <0>         0.1658
     64 H24         8.3110    5.9509   -2.0540 H         1 <0>         0.0921
     65 H25         8.3091    5.9305   -0.2742 H         1 <0>         0.1139
     66 H26        10.4635    7.3841   -1.9049 H         1 <0>         0.0999
     67 H27        10.3127    7.2646   -0.1354 H         1 <0>         0.1218
     68 H28        12.5188    6.7672    1.2326 H         1 <0>         0.1791
     69 H29        12.1108    6.7042   -3.8566 H         1 <0>         0.1149
     70 H30        14.1216    6.6125   -5.2433 H         1 <0>         0.1312
     71 H31        16.3491    6.5532   -4.2056 H         1 <0>         0.1353
     72 H32        16.5895    6.5951   -1.7635 H         1 <0>         0.1294
     73 H33        10.3440    5.3579   -3.2031 H         1 <0>         0.4300
     74 H34        11.6740    4.7689   -2.4291 H         1 <0>         0.4381
     75 H35        10.3048    3.8572   -2.5239 H         1 <0>         0.4392
@<TRIPOS>BOND
     1    1    2 1
     2    1   43 1
     3    1   44 1
     4    1   45 1
     5    2    3 1
     6    2    4 1
     7    2   11 1
     8    3   46 1
     9    3   47 1
    10    3   48 1
    11    4    5 1
    12    4   49 1
    13    4   50 1
    14    5   10 ar
    15    5    6 ar
    16    6    7 ar
    17    6   51 1
    18    7    8 ar
    19    7   52 1
    20    8    9 ar
    21    8   53 1
    22    9   10 ar
    23    9   54 1
    24   10   55 1
    25   11   19 1
    26   11   12 1
    27   11   56 1
    28   12   17 ar
    29   12   13 ar
    30   13   14 ar
    31   13   57 1
    32   14   15 ar
    33   14   21 1
    34   15   16 ar
    35   15   58 1
    36   16   17 ar
    37   16   59 1
    38   17   18 1
    39   18   19 am
    40   18   60 1
    41   19   20 2
    42   21   26 ar
    43   21   22 ar
    44   22   23 ar
    45   22   61 1
    46   23   24 ar
    47   23   27 1
    48   24   25 ar
    49   24   62 1
    50   25   26 ar
    51   26   63 1
    52   27   28 1
    53   28   29 1
    54   28   64 1
    55   28   65 1
    56   29   30 1
    57   29   31 1
    58   29   42 1
    59   31   32 1
    60   31   66 1
    61   31   67 1
    62   32   37 1
    63   32   33 2
    64   33   34 1
    65   33   68 1
    66   34   35 1
    67   34   36 1
    68   36   41 ar
    69   36   37 ar
    70   37   38 ar
    71   38   39 ar
    72   38   69 1
    73   39   40 ar
    74   39   70 1
    75   40   41 ar
    76   40   71 1
    77   41   72 1
    78   42   73 1
    79   42   74 1
    80   42   75 1
@<TRIPOS>MOLECULE
CHEMBL379300
   54    58     0     0     0
SMALL
USER_CHARGES

@<TRIPOS>ATOM
      1 C1         -0.0184    1.5028    0.0103 C.3       1 <0>        -0.0806
      2 C2          0.0021   -0.0041    0.0020 C.2       1 <0>         0.1087
      3 C3          0.0083   -0.8581   -1.1820 C.ar      1 <0>        -0.1762
      4 C4         -0.0019   -0.6082   -2.5573 C.ar      1 <0>        -0.0087
      5 C5          0.0079   -1.6738   -3.4431 C.ar      1 <0>        -0.1054
      6 C6          0.0279   -2.9891   -2.9631 C.ar      1 <0>        -0.0534
      7 C7          0.0380   -3.2410   -1.6234 C.ar      1 <0>        -0.1373
      8 C8          0.0285   -2.1860   -0.7124 C.ar      1 <0>         0.1437
      9 N1          0.0337   -2.1193    0.6566 N.pl3     1 <0>        -0.5047
     10 H1          0.0468   -2.8812    1.2569 H         1 <0>         0.4442
     11 N2          0.0230   -0.7772    1.0497 N.2       1 <0>        -0.2438
     12 C9         -0.0034   -1.4202   -4.9053 C.ar      1 <0>        -0.0277
     13 C10         0.0004   -2.4846   -5.8096 C.ar      1 <0>        -0.1020
     14 C11        -0.0110   -2.1940   -7.1677 C.ar      1 <0>         0.0708
     15 C12        -0.0257   -0.8671   -7.5756 C.ar      1 <0>         0.0160
     16 N3         -0.0289    0.1132   -6.6940 N.ar      1 <0>        -0.4370
     17 C13        -0.0238   -0.1167   -5.3969 C.ar      1 <0>         0.0805
     18 O1         -0.0074   -3.1961   -8.0859 O.3       1 <0>        -0.3231
     19 C14        -0.0198   -2.8144   -9.4629 C.3       1 <0>         0.0265
     20 C15        -0.0136   -4.0682  -10.3397 C.3       1 <0>         0.0434
     21 H2          0.8359   -4.6958  -10.0703 H         1 <0>         0.1527
     22 C16         0.0989   -3.6615  -11.8104 C.3       1 <0>        -0.0555
     23 C17         0.2286   -4.8962  -12.6646 C.2       1 <0>        -0.2374
     24 C18         1.3718   -5.4531  -13.0946 C.2       1 <0>         0.1039
     25 N4          1.0963   -6.5629  -13.8462 N.pl3     1 <0>        -0.5847
     26 H3          1.7614   -7.1317  -14.2646 H         1 <0>         0.4265
     27 C19        -0.2656   -6.7520  -13.9200 C.ar      1 <0>         0.0988
     28 C20        -0.8687   -5.7199  -13.1778 C.ar      1 <0>        -0.1171
     29 C21        -2.2592   -5.6600  -13.0706 C.ar      1 <0>        -0.1140
     30 C22        -3.0285   -6.6077  -13.6851 C.ar      1 <0>        -0.1191
     31 C23        -2.4383   -7.6301  -14.4150 C.ar      1 <0>        -0.0932
     32 C24        -1.0681   -7.7029  -14.5414 C.ar      1 <0>        -0.1111
     33 N5         -1.2605   -4.8167  -10.1327 N.4       1 <0>        -0.6362
     34 H4          1.0042    1.8801    0.0026 H         1 <0>         0.0877
     35 H5         -0.5455    1.8639   -0.8728 H         1 <0>         0.0843
     36 H6         -0.5286    1.8543    0.9071 H         1 <0>         0.0842
     37 H7         -0.0177    0.4067   -2.9264 H         1 <0>         0.1365
     38 H8          0.0350   -3.8127   -3.6617 H         1 <0>         0.1317
     39 H9          0.0531   -4.2604   -1.2670 H         1 <0>         0.1330
     40 H10         0.0123   -3.5071   -5.4619 H         1 <0>         0.1473
     41 H11        -0.0343   -0.6345   -8.6302 H         1 <0>         0.1570
     42 H12        -0.0314    0.7142   -4.7071 H         1 <0>         0.1665
     43 H13        -0.9167   -2.2306   -9.6700 H         1 <0>         0.0919
     44 H14         0.8631   -2.2138   -9.6814 H         1 <0>         0.1138
     45 H15        -0.7936   -3.1088  -12.1038 H         1 <0>         0.0999
     46 H16         0.9777   -3.0313  -11.9469 H         1 <0>         0.1218
     47 H17         2.3623   -5.0803  -12.8795 H         1 <0>         0.1791
     48 H18        -2.7253   -4.8677  -12.5038 H         1 <0>         0.1149
     49 H19        -4.1042   -6.5609  -13.6019 H         1 <0>         0.1312
     50 H20        -3.0596   -8.3721  -14.8943 H         1 <0>         0.1352
     51 H21        -0.6183   -8.5031  -15.1105 H         1 <0>         0.1294
     52 H22        -1.3347   -5.0850   -9.1628 H         1 <0>         0.4392
     53 H23        -2.0469   -4.2358  -10.3821 H         1 <0>         0.4300
     54 H24        -1.2564   -5.6436  -10.7110 H         1 <0>         0.4379
@<TRIPOS>BOND
     1    1    2 1
     2    1   34 1
     3    1   35 1
     4    1   36 1
     5    2   11 2
     6    2    3 1
     7    3    8 ar
     8    3    4 ar
     9    4    5 ar
    10    4   37 1
    11    5    6 ar
    12    5   12 1
    13    6    7 ar
    14    6   38 1
    15    7    8 ar
    16    7   39 1
    17    8    9 1
    18    9   10 1
    19    9   11 1
    20   12   17 ar
    21   12   13 ar
    22   13   14 ar
    23   13   40 1
    24   14   15 ar
    25   14   18 1
    26   15   16 ar
    27   15   41 1
    28   16   17 ar
    29   17   42 1
    30   18   19 1
    31   19   20 1
    32   19   43 1
    33   19   44 1
    34   20   21 1
    35   20   22 1
    36   20   33 1
    37   22   23 1
    38   22   45 1
    39   22   46 1
    40   23   28 1
    41   23   24 2
    42   24   25 1
    43   24   47 1
    44   25   26 1
    45   25   27 1
    46   27   32 ar
    47   27   28 ar
    48   28   29 ar
    49   29   30 ar
    50   29   48 1
    51   30   31 ar
    52   30   49 1
    53   31   32 ar
    54   31   50 1
    55   32   51 1
    56   33   52 1
    57   33   53 1
    58   33   54 1
@<TRIPOS>MOLECULE
CHEMBL408151
   73    80     0     0     0
SMALL
USER_CHARGES

@<TRIPOS>ATOM
      1 C1         -0.3304    0.5262   -0.9333 C.ar      1 <0>        -0.1092
      2 C2          0.7260    1.4183   -0.8886 C.ar      1 <0>        -0.1179
      3 C3          2.0102    0.9612   -0.6748 C.ar      1 <0>        -0.0789
      4 C4          2.2422   -0.4034   -0.5034 C.ar      1 <0>        -0.0354
      5 C5          1.1730   -1.2979   -0.5495 C.ar      1 <0>        -0.0945
      6 C6         -0.1067   -0.8286   -0.7640 C.ar      1 <0>        -0.1271
      7 C7          3.6183   -0.9007   -0.2740 C.ar      1 <0>         0.1326
      8 C8          3.8612   -1.8599    0.7407 C.ar      1 <0>         0.1197
      9 N1          5.0838   -2.3096    0.9533 N.ar      1 <0>        -0.4017
     10 C9          6.0984   -1.8575    0.2065 C.ar      1 <0>         0.0947
     11 C10         7.4058   -2.3236    0.4164 C.ar      1 <0>        -0.0837
     12 C11         8.4370   -1.8404   -0.3697 C.ar      1 <0>         0.0884
     13 C12         8.1839   -0.8890   -1.3729 C.ar      1 <0>        -0.0598
     14 C13         6.9263   -0.4260   -1.5913 C.ar      1 <0>        -0.0915
     15 C14         5.8551   -0.8973   -0.8098 C.ar      1 <0>         0.0805
     16 N2          4.6115   -0.4521   -1.0194 N.ar      1 <0>        -0.4041
     17 C15         9.8169   -2.3286   -0.1522 C.2       1 <0>         0.0584
     18 N3         10.9092   -1.9605   -0.8241 N.2       1 <0>        -0.3559
     19 N4         11.9055   -2.6135   -0.3311 N.2       1 <0>        -0.1787
     20 N5         11.4867   -3.3738    0.6191 N.2       1 <0>        -0.1804
     21 N6         10.2144   -3.2193    0.7582 N.2       1 <0>        -0.3566
     22 C16         2.7377   -2.3598    1.5668 C.ar      1 <0>         0.0133
     23 C17         1.8019   -1.4676    2.0894 C.ar      1 <0>        -0.0821
     24 C18         0.7576   -1.9392    2.8582 C.ar      1 <0>        -0.0969
     25 C19         0.6382   -3.2941    3.1114 C.ar      1 <0>        -0.1614
     26 C20         1.5635   -4.1840    2.5958 C.ar      1 <0>        -0.0906
     27 C21         2.6085   -3.7251    1.8204 C.ar      1 <0>        -0.0816
     28 C22        -0.5040   -3.8025    3.9527 C.3       1 <0>         0.0463
     29 N7         -1.6497   -4.1123    3.0870 N.4       1 <0>        -0.3853
     30 C23        -2.1368   -2.8769    2.4617 C.3       1 <0>        -0.0075
     31 C24        -3.2782   -3.2048    1.4967 C.3       1 <0>        -0.1648
     32 C25        -4.4189   -3.8707    2.2715 C.3       1 <0>         0.1607
     33 C26        -3.8819   -5.1175    2.9803 C.3       1 <0>        -0.1665
     34 C27        -2.7181   -4.7187    3.8903 C.3       1 <0>         0.0012
     35 N8         -5.4832   -4.2562    1.3415 N.am      1 <0>        -0.5370
     36 C28        -6.7995   -3.8019    1.3755 C.ar      1 <0>         0.0813
     37 C29        -7.4830   -2.9270    2.2062 C.ar      1 <0>        -0.1043
     38 C30        -8.8210   -2.6692    1.9813 C.ar      1 <0>        -0.1038
     39 C31        -9.4827   -3.2810    0.9304 C.ar      1 <0>        -0.1006
     40 C32        -8.8105   -4.1543    0.0980 C.ar      1 <0>        -0.1009
     41 C33        -7.4668   -4.4186    0.3153 C.ar      1 <0>         0.0918
     42 N9         -6.5353   -5.2285   -0.3300 N.am      1 <0>        -0.6402
     43 H1         -6.7071   -5.7833   -1.1069 H         1 <0>         0.4393
     44 C34        -5.3543   -5.1054    0.3047 C.2       1 <0>         0.6853
     45 O1         -4.3271   -5.6775   -0.0090 O.2       1 <0>        -0.5548
     46 H2         -1.3344    0.8892   -1.0964 H         1 <0>         0.1229
     47 H3          0.5452    2.4747   -1.0218 H         1 <0>         0.1282
     48 H4          2.8342    1.6586   -0.6405 H         1 <0>         0.1300
     49 H5          1.3464   -2.3557   -0.4178 H         1 <0>         0.1202
     50 H6         -0.9354   -1.5202   -0.7999 H         1 <0>         0.1194
     51 H7          7.6055   -3.0540    1.1864 H         1 <0>         0.1507
     52 H8          8.9999   -0.5214   -1.9774 H         1 <0>         0.1501
     53 H9          6.7479    0.3053   -2.3658 H         1 <0>         0.1438
     54 H10         1.8944   -0.4097    1.8930 H         1 <0>         0.1372
     55 H11         0.0322   -1.2493    3.2634 H         1 <0>         0.1332
     56 H12         1.4653   -5.2405    2.7972 H         1 <0>         0.1345
     57 H13         3.3277   -4.4212    1.4147 H         1 <0>         0.1410
     58 H14        -0.1933   -4.7040    4.4806 H         1 <0>         0.1385
     59 H15        -0.7909   -3.0388    4.6756 H         1 <0>         0.1364
     60 H16        -2.4981   -2.1975    3.2336 H         1 <0>         0.1319
     61 H17        -1.3230   -2.4024    1.9133 H         1 <0>         0.1419
     62 H18        -3.6396   -2.2861    1.0348 H         1 <0>         0.1167
     63 H19        -2.9178   -3.8840    0.7241 H         1 <0>         0.1072
     64 H20        -4.8137   -3.1732    3.0102 H         1 <0>         0.1146
     65 H21        -4.6748   -5.5659    3.5788 H         1 <0>         0.1164
     66 H22        -3.5340   -5.8364    2.2385 H         1 <0>         0.1073
     67 H23        -2.3335   -5.6040    4.3966 H         1 <0>         0.1379
     68 H24        -3.0671   -4.0000    4.6318 H         1 <0>         0.1324
     69 H25        -6.9702   -2.4484    3.0274 H         1 <0>         0.1291
     70 H26        -9.3535   -1.9878    2.6282 H         1 <0>         0.1378
     71 H27       -10.5292   -3.0748    0.7610 H         1 <0>         0.1387
     72 H28        -9.3303   -4.6302   -0.7204 H         1 <0>         0.1358
     73 H29        -1.3618   -4.7596    2.3686 H         1 <0>         0.4264
@<TRIPOS>BOND
     1    1    6 ar
     2    1    2 ar
     3    1   46 1
     4    2    3 ar
     5    2   47 1
     6    3    4 ar
     7    3   48 1
     8    4    5 ar
     9    4    7 1
    10    5    6 ar
    11    5   49 1
    12    6   50 1
    13    7   16 ar
    14    7    8 ar
    15    8    9 ar
    16    8   22 1
    17    9   10 ar
    18   10   15 ar
    19   10   11 ar
    20   11   12 ar
    21   11   51 1
    22   12   13 ar
    23   12   17 1
    24   13   14 ar
    25   13   52 1
    26   14   15 ar
    27   14   53 1
    28   15   16 ar
    29   17   18 2
    30   17   21 1
    31   18   19 1
    32   19   20 2
    33   20   21 1
    34   22   27 ar
    35   22   23 ar
    36   23   24 ar
    37   23   54 1
    38   24   25 ar
    39   24   55 1
    40   25   26 ar
    41   25   28 1
    42   26   27 ar
    43   26   56 1
    44   27   57 1
    45   28   29 1
    46   28   58 1
    47   28   59 1
    48   29   34 1
    49   29   30 1
    50   29   73 1
    51   30   31 1
    52   30   60 1
    53   30   61 1
    54   31   32 1
    55   31   62 1
    56   31   63 1
    57   32   33 1
    58   32   35 1
    59   32   64 1
    60   33   34 1
    61   33   65 1
    62   33   66 1
    63   34   67 1
    64   34   68 1
    65   35   44 am
    66   35   36 1
    67   36   41 ar
    68   36   37 ar
    69   37   38 ar
    70   37   69 1
    71   38   39 ar
    72   38   70 1
    73   39   40 ar
    74   39   71 1
    75   40   41 ar
    76   40   72 1
    77   41   42 1
    78   42   43 1
    79   42   44 am
    80   44   45 2
@<TRIPOS>MOLECULE
CHEMBL271091
   73    80     0     0     0
SMALL
USER_CHARGES

@<TRIPOS>ATOM
      1 C1         -0.3308    0.5259   -0.9334 C.ar      1 <0>        -0.1081
      2 C2          0.7256    1.4181   -0.8888 C.ar      1 <0>        -0.1173
      3 C3          2.0099    0.9609   -0.6754 C.ar      1 <0>        -0.0768
      4 C4          2.2418   -0.4036   -0.5041 C.ar      1 <0>        -0.0387
      5 C5          1.1728   -1.2980   -0.5497 C.ar      1 <0>        -0.0940
      6 C6         -0.1070   -0.8288   -0.7642 C.ar      1 <0>        -0.1281
      7 C7          3.6183   -0.9010   -0.2752 C.ar      1 <0>         0.1460
      8 C8          3.8622   -1.8602    0.7392 C.ar      1 <0>         0.1058
      9 N1          5.0850   -2.3104    0.9518 N.ar      1 <0>        -0.3994
     10 C9          6.0996   -1.8596    0.2060 C.ar      1 <0>         0.0709
     11 C10         7.4092   -2.3287    0.4184 C.ar      1 <0>        -0.0890
     12 C11         8.4313   -1.8637   -0.3450 C.ar      1 <0>        -0.0637
     13 C12         8.2018   -0.9123   -1.3538 C.ar      1 <0>         0.0928
     14 C13         6.9257   -0.4312   -1.5884 C.ar      1 <0>        -0.0863
     15 C14         5.8553   -0.8993   -0.8101 C.ar      1 <0>         0.1039
     16 N2          4.6112   -0.4528   -1.0205 N.ar      1 <0>        -0.4064
     17 C15         9.3334   -0.4211   -2.1710 C.2       1 <0>         0.0572
     18 N3         10.6122   -0.7868   -2.0656 N.2       1 <0>        -0.3561
     19 N4         11.2769   -0.1318   -2.9551 N.2       1 <0>        -0.1787
     20 N5         10.4724    0.6275   -3.6128 N.2       1 <0>        -0.1795
     21 N6          9.2748    0.4702   -3.1621 N.2       1 <0>        -0.3546
     22 C16         2.7392   -2.3601    1.5657 C.ar      1 <0>         0.0168
     23 C17         1.8035   -1.4678    2.0887 C.ar      1 <0>        -0.0828
     24 C18         0.7596   -1.9395    2.8579 C.ar      1 <0>        -0.0960
     25 C19         0.6403   -3.2943    3.1111 C.ar      1 <0>        -0.1625
     26 C20         1.5656   -4.1843    2.5955 C.ar      1 <0>        -0.0911
     27 C21         2.6101   -3.7255    1.8193 C.ar      1 <0>        -0.0839
     28 C22        -0.5019   -3.8028    3.9524 C.3       1 <0>         0.0465
     29 N7         -1.6476   -4.1127    3.0868 N.4       1 <0>        -0.3853
     30 C23        -2.1348   -2.8773    2.4615 C.3       1 <0>        -0.0075
     31 C24        -3.2762   -3.2053    1.4965 C.3       1 <0>        -0.1650
     32 C25        -4.4169   -3.8713    2.2714 C.3       1 <0>         0.1608
     33 C26        -3.8797   -5.1180    2.9801 C.3       1 <0>        -0.1665
     34 C27        -2.7160   -4.7192    3.8901 C.3       1 <0>         0.0013
     35 N8         -5.4812   -4.2567    1.3414 N.am      1 <0>        -0.5370
     36 C28        -6.7975   -3.8026    1.3755 C.ar      1 <0>         0.0812
     37 C29        -7.4810   -2.9277    2.2062 C.ar      1 <0>        -0.1043
     38 C30        -8.8190   -2.6700    1.9813 C.ar      1 <0>        -0.1038
     39 C31        -9.4808   -3.2818    0.9304 C.ar      1 <0>        -0.1004
     40 C32        -8.8085   -4.1550    0.0980 C.ar      1 <0>        -0.1008
     41 C33        -7.4648   -4.4193    0.3153 C.ar      1 <0>         0.0919
     42 N9         -6.5333   -5.2291   -0.3301 N.am      1 <0>        -0.6401
     43 H1         -6.7051   -5.7839   -1.1070 H         1 <0>         0.4393
     44 C34        -5.3522   -5.1059    0.3046 C.2       1 <0>         0.6854
     45 O1         -4.3251   -5.6780   -0.0092 O.2       1 <0>        -0.5550
     46 H2         -1.3348    0.8889   -1.0965 H         1 <0>         0.1232
     47 H3          0.5447    2.4745   -1.0215 H         1 <0>         0.1290
     48 H4          2.8339    1.6582   -0.6415 H         1 <0>         0.1313
     49 H5          1.3462   -2.3558   -0.4177 H         1 <0>         0.1198
     50 H6         -0.9357   -1.5205   -0.8000 H         1 <0>         0.1193
     51 H7          7.6016   -3.0595    1.1899 H         1 <0>         0.1425
     52 H8          9.4332   -2.2292   -0.1746 H         1 <0>         0.1498
     53 H9          6.7545    0.3001   -2.3645 H         1 <0>         0.1519
     54 H10         1.8959   -0.4098    1.8923 H         1 <0>         0.1375
     55 H11         0.0344   -1.2496    3.2635 H         1 <0>         0.1331
     56 H12         1.4674   -5.2408    2.7969 H         1 <0>         0.1336
     57 H13         3.3288   -4.4217    1.4130 H         1 <0>         0.1396
     58 H14        -0.1911   -4.7044    4.4803 H         1 <0>         0.1380
     59 H15        -0.7888   -3.0391    4.6753 H         1 <0>         0.1362
     60 H16        -2.4961   -2.1979    3.2335 H         1 <0>         0.1320
     61 H17        -1.3210   -2.4028    1.9131 H         1 <0>         0.1421
     62 H18        -3.6376   -2.2865    1.0347 H         1 <0>         0.1171
     63 H19        -2.9158   -3.8845    0.7239 H         1 <0>         0.1073
     64 H20        -4.8117   -3.1738    3.0101 H         1 <0>         0.1146
     65 H21        -4.6726   -5.5665    3.5786 H         1 <0>         0.1164
     66 H22        -3.5319   -5.8369    2.2383 H         1 <0>         0.1073
     67 H23        -2.3313   -5.6045    4.3964 H         1 <0>         0.1376
     68 H24        -3.0650   -4.0005    4.6316 H         1 <0>         0.1324
     69 H25        -6.9682   -2.4491    3.0274 H         1 <0>         0.1291
     70 H26        -9.3515   -1.9886    2.6283 H         1 <0>         0.1378
     71 H27       -10.5273   -3.0756    0.7611 H         1 <0>         0.1388
     72 H28        -9.3283   -4.6310   -0.7203 H         1 <0>         0.1359
     73 H29        -1.3597   -4.7600    2.3683 H         1 <0>         0.4263
@<TRIPOS>BOND
     1    1    6 ar
     2    1    2 ar
     3    1   46 1
     4    2    3 ar
     5    2   47 1
     6    3    4 ar
     7    3   48 1
     8    4    5 ar
     9    4    7 1
    10    5    6 ar
    11    5   49 1
    12    6   50 1
    13    7   16 ar
    14    7    8 ar
    15    8    9 ar
    16    8   22 1
    17    9   10 ar
    18   10   15 ar
    19   10   11 ar
    20   11   12 ar
    21   11   51 1
    22   12   13 ar
    23   12   52 1
    24   13   14 ar
    25   13   17 1
    26   14   15 ar
    27   14   53 1
    28   15   16 ar
    29   17   18 2
    30   17   21 1
    31   18   19 1
    32   19   20 2
    33   20   21 1
    34   22   27 ar
    35   22   23 ar
    36   23   24 ar
    37   23   54 1
    38   24   25 ar
    39   24   55 1
    40   25   26 ar
    41   25   28 1
    42   26   27 ar
    43   26   56 1
    44   27   57 1
    45   28   29 1
    46   28   58 1
    47   28   59 1
    48   29   34 1
    49   29   30 1
    50   29   73 1
    51   30   31 1
    52   30   60 1
    53   30   61 1
    54   31   32 1
    55   31   62 1
    56   31   63 1
    57   32   33 1
    58   32   35 1
    59   32   64 1
    60   33   34 1
    61   33   65 1
    62   33   66 1
    63   34   67 1
    64   34   68 1
    65   35   44 am
    66   35   36 1
    67   36   41 ar
    68   36   37 ar
    69   37   38 ar
    70   37   69 1
    71   38   39 ar
    72   38   70 1
    73   39   40 ar
    74   39   71 1
    75   40   41 ar
    76   40   72 1
    77   41   42 1
    78   42   43 1
    79   42   44 am
    80   44   45 2
@<TRIPOS>MOLECULE
CHEMBL368010
   64    69     0     0     0
SMALL
USER_CHARGES

@<TRIPOS>ATOM
      1 C1         -0.0167    1.3791    0.0096 C.ar      1 <0>        -0.1062
      2 C2          1.1686    2.0923    0.0021 C.ar      1 <0>        -0.1116
      3 C3          2.3774    1.4267   -0.0129 C.ar      1 <0>        -0.1007
      4 C4          2.4025    0.0329   -0.0206 C.ar      1 <0>        -0.0565
      5 C5          1.2049   -0.6804   -0.0130 C.ar      1 <0>        -0.0980
      6 C6          0.0021   -0.0041    0.0020 C.ar      1 <0>        -0.1224
      7 C7          3.6980   -0.6879   -0.0373 C.ar      1 <0>        -0.0787
      8 C8          4.6841   -0.3489   -0.9608 C.ar      1 <0>        -0.0141
      9 C9          5.8893   -1.0597   -0.9344 C.ar      1 <0>        -0.0566
     10 C10         6.0606   -2.0766    0.0097 C.ar      1 <0>         0.1614
     11 N1          5.1084   -2.3706    0.8673 N.ar      1 <0>        -0.4623
     12 C11         3.9521   -1.7196    0.8820 C.ar      1 <0>         0.1835
     13 C12         2.9166   -2.0881    1.8743 C.ar      1 <0>        -0.0124
     14 C13         2.0861   -1.1074    2.4169 C.ar      1 <0>        -0.0808
     15 C14         1.1228   -1.4571    3.3407 C.ar      1 <0>        -0.1000
     16 C15         0.9799   -2.7771    3.7295 C.ar      1 <0>        -0.1503
     17 C16         1.8008   -3.7543    3.1953 C.ar      1 <0>        -0.0972
     18 C17         2.7637   -3.4181    2.2660 C.ar      1 <0>        -0.0743
     19 C18        -0.0740   -3.1521    4.7393 C.3       1 <0>         0.0427
     20 N2         -1.3259   -3.4772    4.0428 N.4       1 <0>        -0.3840
     21 C19        -1.8336   -2.2775    3.3665 C.3       1 <0>        -0.0128
     22 C20        -3.0937   -2.6295    2.5730 C.3       1 <0>        -0.1383
     23 C21        -4.1603   -3.1670    3.5314 C.3       1 <0>        -0.0152
     24 C22        -3.5936   -4.3733    4.2855 C.3       1 <0>        -0.1480
     25 C23        -2.3149   -3.9567    5.0156 C.3       1 <0>        -0.0030
     26 C24        -5.3760   -3.5888    2.7470 C.2       1 <0>         0.2689
     27 N3         -6.4203   -2.8432    2.5327 N.2       1 <0>        -0.4638
     28 C25        -7.3278   -3.5306    1.7917 C.ar      1 <0>         0.0331
     29 C26        -8.5929   -3.2188    1.2868 C.ar      1 <0>        -0.0262
     30 C27        -9.2822   -4.1449    0.5567 C.ar      1 <0>        -0.1536
     31 C28        -8.7379   -5.3993    0.3088 C.ar      1 <0>         0.1356
     32 C29        -7.4899   -5.7285    0.7984 C.ar      1 <0>        -0.1566
     33 C30        -6.7761   -4.7984    1.5420 C.ar      1 <0>         0.0817
     34 N4         -5.5390   -4.8032    2.1547 N.pl3     1 <0>        -0.5954
     35 F1         -9.4346   -6.3023   -0.4155 F         1 <0>        -0.1263
     36 C31         6.9341   -0.7496   -1.8633 C.1       1 <0>         0.2406
     37 N5          7.7630   -0.5036   -2.6002 N.1       1 <0>        -0.3789
     38 H1         -0.9603    1.9042    0.0260 H         1 <0>         0.1274
     39 H2          1.1479    3.1721    0.0077 H         1 <0>         0.1311
     40 H3          3.3022    1.9845   -0.0191 H         1 <0>         0.1294
     41 H4          1.2184   -1.7603   -0.0193 H         1 <0>         0.1208
     42 H5         -0.9264   -0.5557    0.0079 H         1 <0>         0.1228
     43 H6          4.5226    0.4416   -1.6788 H         1 <0>         0.1544
     44 H7          6.9884   -2.6289    0.0347 H         1 <0>         0.1776
     45 H8          2.1972   -0.0765    2.1147 H         1 <0>         0.1439
     46 H9          0.4792   -0.6987    3.7615 H         1 <0>         0.1355
     47 H10         1.6846   -4.7830    3.5030 H         1 <0>         0.1354
     48 H11         3.4008   -4.1825    1.8462 H         1 <0>         0.1433
     49 H12         0.2607   -4.0191    5.3088 H         1 <0>         0.1397
     50 H13        -0.2420   -2.3150    5.4170 H         1 <0>         0.1387
     51 H14        -2.0731   -1.5163    4.1090 H         1 <0>         0.1357
     52 H15        -1.0722   -1.8943    2.6872 H         1 <0>         0.1385
     53 H16        -3.4701   -1.7370    2.0730 H         1 <0>         0.1231
     54 H17        -2.8552   -3.3905    1.8299 H         1 <0>         0.0889
     55 H18        -4.4362   -2.3889    4.2431 H         1 <0>         0.1274
     56 H19        -4.3273   -4.7274    5.0097 H         1 <0>         0.1223
     57 H20        -3.3655   -5.1705    3.5781 H         1 <0>         0.0867
     58 H21        -1.9089   -4.8132    5.5538 H         1 <0>         0.1380
     59 H22        -2.5442   -3.1597    5.7230 H         1 <0>         0.1370
     60 H23        -9.0253   -2.2470    1.4739 H         1 <0>         0.1461
     61 H24       -10.2598   -3.8999    0.1687 H         1 <0>         0.1502
     62 H25        -7.0706   -6.7046    0.6038 H         1 <0>         0.1396
     63 H26        -1.1515   -4.1981    3.3588 H         1 <0>         0.4218
     64 H27        -4.9044   -5.5367    2.1629 H         1 <0>         0.4213
@<TRIPOS>BOND
     1    1    6 ar
     2    1    2 ar
     3    1   38 1
     4    2    3 ar
     5    2   39 1
     6    3    4 ar
     7    3   40 1
     8    4    5 ar
     9    4    7 1
    10    5    6 ar
    11    5   41 1
    12    6   42 1
    13    7   12 ar
    14    7    8 ar
    15    8    9 ar
    16    8   43 1
    17    9   10 ar
    18    9   36 1
    19   10   11 ar
    20   10   44 1
    21   11   12 ar
    22   12   13 1
    23   13   18 ar
    24   13   14 ar
    25   14   15 ar
    26   14   45 1
    27   15   16 ar
    28   15   46 1
    29   16   17 ar
    30   16   19 1
    31   17   18 ar
    32   17   47 1
    33   18   48 1
    34   19   20 1
    35   19   49 1
    36   19   50 1
    37   20   25 1
    38   20   21 1
    39   20   63 1
    40   21   22 1
    41   21   51 1
    42   21   52 1
    43   22   23 1
    44   22   53 1
    45   22   54 1
    46   23   24 1
    47   23   26 1
    48   23   55 1
    49   24   25 1
    50   24   56 1
    51   24   57 1
    52   25   58 1
    53   25   59 1
    54   26   34 1
    55   26   27 2
    56   27   28 1
    57   28   33 ar
    58   28   29 ar
    59   29   30 ar
    60   29   60 1
    61   30   31 ar
    62   30   61 1
    63   31   32 ar
    64   31   35 1
    65   32   33 ar
    66   32   62 1
    67   33   34 1
    68   34   64 1
    69   36   37 3
@<TRIPOS>MOLECULE
CHEMBL368010
   64    69     0     0     0
SMALL
USER_CHARGES

@<TRIPOS>ATOM
      1 C1         -0.0167    1.3791    0.0096 C.ar      1 <0>        -0.1062
      2 C2          1.1686    2.0923    0.0021 C.ar      1 <0>        -0.1116
      3 C3          2.3774    1.4267   -0.0129 C.ar      1 <0>        -0.1006
      4 C4          2.4025    0.0329   -0.0206 C.ar      1 <0>        -0.0566
      5 C5          1.2049   -0.6804   -0.0130 C.ar      1 <0>        -0.0980
      6 C6          0.0021   -0.0041    0.0020 C.ar      1 <0>        -0.1224
      7 C7          3.6980   -0.6879   -0.0373 C.ar      1 <0>        -0.0786
      8 C8          4.6841   -0.3489   -0.9608 C.ar      1 <0>        -0.0141
      9 C9          5.8893   -1.0597   -0.9344 C.ar      1 <0>        -0.0565
     10 C10         6.0606   -2.0766    0.0097 C.ar      1 <0>         0.1614
     11 N1          5.1084   -2.3706    0.8673 N.ar      1 <0>        -0.4623
     12 C11         3.9521   -1.7196    0.8820 C.ar      1 <0>         0.1834
     13 C12         2.9166   -2.0881    1.8743 C.ar      1 <0>        -0.0123
     14 C13         2.0861   -1.1074    2.4169 C.ar      1 <0>        -0.0808
     15 C14         1.1228   -1.4571    3.3407 C.ar      1 <0>        -0.1000
     16 C15         0.9799   -2.7771    3.7295 C.ar      1 <0>        -0.1504
     17 C16         1.8008   -3.7543    3.1953 C.ar      1 <0>        -0.0972
     18 C17         2.7637   -3.4181    2.2660 C.ar      1 <0>        -0.0744
     19 C18        -0.0740   -3.1521    4.7393 C.3       1 <0>         0.0427
     20 N2         -1.3259   -3.4772    4.0428 N.4       1 <0>        -0.3839
     21 C19        -1.8336   -2.2775    3.3665 C.3       1 <0>        -0.0129
     22 C20        -3.0937   -2.6295    2.5730 C.3       1 <0>        -0.1381
     23 C21        -4.1603   -3.1670    3.5314 C.3       1 <0>        -0.0166
     24 C22        -3.5936   -4.3733    4.2855 C.3       1 <0>        -0.1478
     25 C23        -2.3149   -3.9567    5.0156 C.3       1 <0>        -0.0031
     26 C24        -5.3760   -3.5888    2.7470 C.2       1 <0>         0.2766
     27 N3         -5.5411   -4.8044    2.1596 N.pl3     1 <0>        -0.5951
     28 H1         -4.9084   -5.5395    2.1718 H         1 <0>         0.4213
     29 C25        -6.7774   -4.7980    1.5427 C.ar      1 <0>         0.0435
     30 C26        -7.4892   -5.7289    0.7987 C.ar      1 <0>        -0.0821
     31 C27        -8.7356   -5.4063    0.3072 C.ar      1 <0>        -0.1214
     32 C28        -9.2859   -4.1535    0.5510 C.ar      1 <0>         0.1030
     33 C29        -8.5934   -3.2174    1.2875 C.ar      1 <0>        -0.1006
     34 C30        -7.3284   -3.5302    1.7929 C.ar      1 <0>         0.0718
     35 N4         -6.4230   -2.8451    2.5378 N.2       1 <0>        -0.4703
     36 F1        -10.5085   -3.8512    0.0619 F         1 <0>        -0.1285
     37 C31         6.9341   -0.7496   -1.8633 C.1       1 <0>         0.2406
     38 N5          7.7630   -0.5036   -2.6002 N.1       1 <0>        -0.3789
     39 H2         -0.9603    1.9042    0.0260 H         1 <0>         0.1275
     40 H3          1.1479    3.1721    0.0077 H         1 <0>         0.1311
     41 H4          3.3022    1.9845   -0.0191 H         1 <0>         0.1294
     42 H5          1.2184   -1.7603   -0.0193 H         1 <0>         0.1208
     43 H6         -0.9264   -0.5557    0.0079 H         1 <0>         0.1229
     44 H7          4.5226    0.4416   -1.6788 H         1 <0>         0.1544
     45 H8          6.9884   -2.6289    0.0347 H         1 <0>         0.1776
     46 H9          2.1972   -0.0765    2.1147 H         1 <0>         0.1439
     47 H10         0.4792   -0.6987    3.7615 H         1 <0>         0.1355
     48 H11         1.6846   -4.7830    3.5030 H         1 <0>         0.1354
     49 H12         3.4008   -4.1825    1.8462 H         1 <0>         0.1433
     50 H13         0.2607   -4.0191    5.3088 H         1 <0>         0.1397
     51 H14        -0.2420   -2.3150    5.4170 H         1 <0>         0.1387
     52 H15        -2.0731   -1.5163    4.1090 H         1 <0>         0.1358
     53 H16        -1.0722   -1.8943    2.6872 H         1 <0>         0.1386
     54 H17        -3.4701   -1.7370    2.0730 H         1 <0>         0.1232
     55 H18        -2.8552   -3.3905    1.8299 H         1 <0>         0.0892
     56 H19        -4.4362   -2.3889    4.2431 H         1 <0>         0.1277
     57 H20        -4.3273   -4.7274    5.0097 H         1 <0>         0.1224
     58 H21        -3.3655   -5.1705    3.5781 H         1 <0>         0.0870
     59 H22        -1.9089   -4.8132    5.5538 H         1 <0>         0.1381
     60 H23        -2.5442   -3.1597    5.7230 H         1 <0>         0.1370
     61 H24        -7.0669   -6.7039    0.6051 H         1 <0>         0.1379
     62 H25        -9.2883   -6.1316   -0.2715 H         1 <0>         0.1504
     63 H26        -9.0262   -2.2455    1.4732 H         1 <0>         0.1475
     64 H27        -1.1515   -4.1981    3.3588 H         1 <0>         0.4218
@<TRIPOS>BOND
     1    1    6 ar
     2    1    2 ar
     3    1   39 1
     4    2    3 ar
     5    2   40 1
     6    3    4 ar
     7    3   41 1
     8    4    5 ar
     9    4    7 1
    10    5    6 ar
    11    5   42 1
    12    6   43 1
    13    7   12 ar
    14    7    8 ar
    15    8    9 ar
    16    8   44 1
    17    9   10 ar
    18    9   37 1
    19   10   11 ar
    20   10   45 1
    21   11   12 ar
    22   12   13 1
    23   13   18 ar
    24   13   14 ar
    25   14   15 ar
    26   14   46 1
    27   15   16 ar
    28   15   47 1
    29   16   17 ar
    30   16   19 1
    31   17   18 ar
    32   17   48 1
    33   18   49 1
    34   19   20 1
    35   19   50 1
    36   19   51 1
    37   20   25 1
    38   20   21 1
    39   20   64 1
    40   21   22 1
    41   21   52 1
    42   21   53 1
    43   22   23 1
    44   22   54 1
    45   22   55 1
    46   23   24 1
    47   23   26 1
    48   23   56 1
    49   24   25 1
    50   24   57 1
    51   24   58 1
    52   25   59 1
    53   25   60 1
    54   26   35 2
    55   26   27 1
    56   27   28 1
    57   27   29 1
    58   29   34 ar
    59   29   30 ar
    60   30   31 ar
    61   30   61 1
    62   31   32 ar
    63   31   62 1
    64   32   33 ar
    65   32   36 1
    66   33   34 ar
    67   33   63 1
    68   34   35 1
    69   37   38 3
@<TRIPOS>MOLECULE
CHEMBL1094320
   57    60     0     0     0
SMALL
USER_CHARGES

@<TRIPOS>ATOM
      1 C1         -0.0187    1.5258    0.0104 C.3       1 <0>        -0.1737
      2 C2          0.0021   -0.0041    0.0020 C.3       1 <0>        -0.1485
      3 C3         -1.4333   -0.5336    0.0129 C.3       1 <0>         0.0384
      4 H1         -1.9701   -0.1109    0.8621 H         1 <0>         0.1549
      5 C4         -1.4133   -2.0590    0.1302 C.3       1 <0>         0.0253
      6 O1         -2.7512   -2.5446    0.2575 O.3       1 <0>        -0.3220
      7 C5         -2.9112   -3.8894    0.3729 C.ar      1 <0>         0.0575
      8 C6         -4.1814   -4.4385    0.4948 C.ar      1 <0>        -0.0570
      9 C7         -4.2938   -5.8262    0.6106 C.ar      1 <0>        -0.0516
     10 C8         -3.1347   -6.6009    0.5994 C.ar      1 <0>         0.1030
     11 N1         -1.9502   -6.0373    0.4821 N.ar      1 <0>        -0.4418
     12 C9         -1.8079   -4.7315    0.3646 C.ar      1 <0>         0.0334
     13 C10        -5.6252   -6.4653    0.7439 C.ar      1 <0>         0.2264
     14 C11        -5.7079   -7.8462    0.8630 C.ar      1 <0>        -0.2057
     15 C12        -6.9666   -8.4300    0.9873 C.ar      1 <0>         0.0693
     16 C13        -7.1743   -9.8725    1.1195 C.ar      1 <0>        -0.0897
     17 C14        -6.1084  -10.7724    1.1301 C.ar      1 <0>        -0.1571
     18 C15        -6.3542  -12.1229    1.2575 C.ar      1 <0>         0.1214
     19 C16        -7.6673  -12.5941    1.3756 C.ar      1 <0>         0.1388
     20 C17        -8.7308  -11.7200    1.3666 C.ar      1 <0>        -0.1599
     21 C18        -8.5039  -10.3422    1.2391 C.ar      1 <0>         0.1387
     22 N2         -9.5320   -9.4766    1.2295 N.ar      1 <0>        -0.4765
     23 C19        -9.3838   -8.1852    1.1134 C.ar      1 <0>         0.1855
     24 C20        -8.1130   -7.5955    0.9875 C.ar      1 <0>        -0.2159
     25 C21        -7.9338   -6.2039    0.8613 C.ar      1 <0>         0.4694
     26 N3         -6.7170   -5.7024    0.7523 N.ar      1 <0>        -0.5559
     27 N4         -9.0320   -5.3623    0.8576 N.pl3     1 <0>        -0.8307
     28 O2         -7.8943  -13.9283    1.5001 O.3       1 <0>        -0.2980
     29 C22        -9.2558  -14.3466    1.6167 C.3       1 <0>         0.0205
     30 O3         -5.3166  -13.0014    1.2680 O.3       1 <0>        -0.2969
     31 C23        -4.0023  -12.4545    1.1430 C.3       1 <0>         0.0215
     32 N5         -2.1072   -0.1473   -1.2339 N.4       1 <0>        -0.6366
     33 H2          1.0039    1.9031    0.0027 H         1 <0>         0.0880
     34 H3         -0.5459    1.8868   -0.8726 H         1 <0>         0.0543
     35 H4         -0.5289    1.8773    0.9072 H         1 <0>         0.0752
     36 H5          0.5123   -0.3556   -0.8948 H         1 <0>         0.0944
     37 H6          0.5293   -0.3651    0.8851 H         1 <0>         0.1174
     38 H7         -0.9551   -2.4861   -0.7619 H         1 <0>         0.0914
     39 H8         -0.8366   -2.3483    1.0088 H         1 <0>         0.1132
     40 H9         -5.0590   -3.8091    0.5003 H         1 <0>         0.1580
     41 H10        -3.2090   -7.6747    0.6882 H         1 <0>         0.1692
     42 H11        -0.8182   -4.3108    0.2652 H         1 <0>         0.1592
     43 H12        -4.8156   -8.4546    0.8590 H         1 <0>         0.1422
     44 H13        -5.0943  -10.4125    1.0385 H         1 <0>         0.1449
     45 H14        -9.7394  -12.0953    1.4578 H         1 <0>         0.1542
     46 H15       -10.2595   -7.5530    1.1137 H         1 <0>         0.1597
     47 H16        -9.9255   -5.7304    0.9420 H         1 <0>         0.4149
     48 H17        -8.9085   -4.4041    0.7706 H         1 <0>         0.4111
     49 H18        -9.2957  -15.4320    1.7092 H         1 <0>         0.1081
     50 H19        -9.7017  -13.8900    2.5003 H         1 <0>         0.0611
     51 H20        -9.8083  -14.0370    0.7296 H         1 <0>         0.0610
     52 H21        -3.8139  -11.7689    1.9692 H         1 <0>         0.0582
     53 H22        -3.2695  -13.2611    1.1660 H         1 <0>         0.1075
     54 H23        -3.9209  -11.9164    0.1986 H         1 <0>         0.0580
     55 H24        -2.1205    0.8587   -1.3113 H         1 <0>         0.4369
     56 H25        -1.6103   -0.5386   -2.0201 H         1 <0>         0.4333
     57 H26        -3.0538   -0.4965   -1.2267 H         1 <0>         0.4425
@<TRIPOS>BOND
     1    1    2 1
     2    1   33 1
     3    1   34 1
     4    1   35 1
     5    2    3 1
     6    2   36 1
     7    2   37 1
     8    3    4 1
     9    3    5 1
    10    3   32 1
    11    5    6 1
    12    5   38 1
    13    5   39 1
    14    6    7 1
    15    7   12 ar
    16    7    8 ar
    17    8    9 ar
    18    8   40 1
    19    9   10 ar
    20    9   13 1
    21   10   11 ar
    22   10   41 1
    23   11   12 ar
    24   12   42 1
    25   13   26 ar
    26   13   14 ar
    27   14   15 ar
    28   14   43 1
    29   15   24 ar
    30   15   16 ar
    31   16   21 ar
    32   16   17 ar
    33   17   18 ar
    34   17   44 1
    35   18   19 ar
    36   18   30 1
    37   19   20 ar
    38   19   28 1
    39   20   21 ar
    40   20   45 1
    41   21   22 ar
    42   22   23 ar
    43   23   24 ar
    44   23   46 1
    45   24   25 ar
    46   25   26 ar
    47   25   27 1
    48   27   47 1
    49   27   48 1
    50   28   29 1
    51   29   49 1
    52   29   50 1
    53   29   51 1
    54   30   31 1
    55   31   52 1
    56   31   53 1
    57   31   54 1
    58   32   55 1
    59   32   56 1
    60   32   57 1
@<TRIPOS>MOLECULE
CHEMBL574290
   51    54     0     0     0
SMALL
USER_CHARGES

@<TRIPOS>ATOM
      1 C1         -0.5910    1.3574    0.1982 C.3       1 <0>         0.0691
      2 N1         -0.4259   -0.0968    0.1346 N.pl3     1 <0>        -0.4764
      3 C2         -0.2896   -0.8229   -1.0172 C.2       1 <0>         0.1187
      4 C3         -0.1585   -2.1262   -0.7239 C.2       1 <0>        -0.2260
      5 C4         -0.2155   -2.2448    0.7351 C.ar      1 <0>        -0.0909
      6 C5         -0.3788   -0.9360    1.2252 C.ar      1 <0>         0.0960
      7 C6         -0.4612   -0.7279    2.5980 C.ar      1 <0>        -0.1161
      8 C7         -0.3786   -1.8006    3.4589 C.ar      1 <0>        -0.0934
      9 C8         -0.2139   -3.0892    2.9705 C.ar      1 <0>        -0.1271
     10 C9         -0.1392   -3.3174    1.6251 C.ar      1 <0>        -0.0897
     11 C10         0.0140   -3.2537   -1.7089 C.3       1 <0>         0.1519
     12 C11         1.5036   -3.5591   -1.8787 C.3       1 <0>        -0.0271
     13 N2          1.6717   -4.6581   -2.8388 N.4       1 <0>        -0.6432
     14 O1         -0.5411   -2.8739   -2.9697 O.3       1 <0>        -0.2926
     15 C12        -1.0864   -3.8624   -3.7267 C.ar      1 <0>         0.0533
     16 C13        -1.1660   -5.1591   -3.2373 C.ar      1 <0>        -0.2041
     17 C14        -1.7363   -6.1422   -4.0556 C.ar      1 <0>        -0.0446
     18 C15        -2.1993   -5.7803   -5.3237 C.ar      1 <0>         0.0828
     19 N3         -2.1016   -4.5367   -5.7443 N.ar      1 <0>        -0.4248
     20 C16        -1.5756   -3.5860   -4.9963 C.ar      1 <0>         0.0889
     21 C17        -1.8460   -7.5355   -3.5875 C.2       1 <0>        -0.1316
     22 C18        -2.3947   -8.4691   -4.3812 C.2       1 <0>        -0.0619
     23 C19        -2.5043   -9.8620   -3.9133 C.ar      1 <0>        -0.0326
     24 C20        -2.0476  -10.2330   -2.6410 C.ar      1 <0>        -0.1645
     25 C21        -2.1702  -11.5478   -2.2446 C.ar      1 <0>         0.1037
     26 N4         -2.7076  -12.4498   -3.0441 N.ar      1 <0>        -0.4771
     27 C22        -3.1503  -12.1441   -4.2491 C.ar      1 <0>         0.1066
     28 C23        -3.0737  -10.8525   -4.7254 C.ar      1 <0>        -0.1528
     29 H1          0.3885    1.8321    0.2576 H         1 <0>         0.0789
     30 H2         -1.1089    1.7038   -0.6962 H         1 <0>         0.0905
     31 H3         -1.1754    1.6185    1.0805 H         1 <0>         0.0885
     32 H4         -0.2882   -0.4086   -2.0146 H         1 <0>         0.1769
     33 H5         -0.5890    0.2711    2.9878 H         1 <0>         0.1261
     34 H6         -0.4425   -1.6368    4.5245 H         1 <0>         0.1329
     35 H7         -0.1506   -3.9189    3.6589 H         1 <0>         0.1286
     36 H8         -0.0096   -4.3227    1.2523 H         1 <0>         0.1174
     37 H9         -0.4990   -4.1413   -1.3386 H         1 <0>         0.1047
     38 H10         2.0165   -2.6715   -2.2490 H         1 <0>         0.1493
     39 H11         1.9270   -3.8488   -0.9170 H         1 <0>         0.1548
     40 H12         1.1969   -5.4798   -2.4960 H         1 <0>         0.4307
     41 H13         1.2797   -4.3900   -3.7290 H         1 <0>         0.4329
     42 H14        -0.7975   -5.4034   -2.2519 H         1 <0>         0.1424
     43 H15        -2.6413   -6.5284   -5.9650 H         1 <0>         0.1695
     44 H16        -1.5203   -2.5777   -5.3794 H         1 <0>         0.1734
     45 H17        -1.4849   -7.8054   -2.6061 H         1 <0>         0.1317
     46 H18        -2.7557   -8.1992   -5.3627 H         1 <0>         0.1342
     47 H19        -1.6061   -9.5004   -1.9817 H         1 <0>         0.1348
     48 H20        -1.8213  -11.8437   -1.2663 H         1 <0>         0.1600
     49 H21        -3.5825  -12.9155   -4.8692 H         1 <0>         0.1632
     50 H22        -3.4426  -10.6086   -5.7107 H         1 <0>         0.1422
     51 H23         2.6541   -4.8595   -2.9507 H         1 <0>         0.4417
@<TRIPOS>BOND
     1    1    2 1
     2    1   29 1
     3    1   30 1
     4    1   31 1
     5    2    6 1
     6    2    3 1
     7    3    4 2
     8    3   32 1
     9    4    5 1
    10    4   11 1
    11    5   10 ar
    12    5    6 ar
    13    6    7 ar
    14    7    8 ar
    15    7   33 1
    16    8    9 ar
    17    8   34 1
    18    9   10 ar
    19    9   35 1
    20   10   36 1
    21   11   12 1
    22   11   14 1
    23   11   37 1
    24   12   13 1
    25   12   38 1
    26   12   39 1
    27   13   40 1
    28   13   41 1
    29   13   51 1
    30   14   15 1
    31   15   20 ar
    32   15   16 ar
    33   16   17 ar
    34   16   42 1
    35   17   18 ar
    36   17   21 1
    37   18   19 ar
    38   18   43 1
    39   19   20 ar
    40   20   44 1
    41   21   22 2
    42   21   45 1
    43   22   23 1
    44   22   46 1
    45   23   28 ar
    46   23   24 ar
    47   24   25 ar
    48   24   47 1
    49   25   26 ar
    50   25   48 1
    51   26   27 ar
    52   27   28 ar
    53   27   49 1
    54   28   50 1
@<TRIPOS>MOLECULE
CHEMBL574290
   51    54     0     0     0
SMALL
USER_CHARGES

@<TRIPOS>ATOM
      1 C1          0.2100    1.4366    0.0823 C.3       1 <0>         0.0691
      2 N1          0.1721   -0.0276    0.0532 N.pl3     1 <0>        -0.4765
      3 C2          0.1257   -0.7903   -1.0819 C.2       1 <0>         0.1188
      4 C3          0.1002   -2.0926   -0.7576 C.2       1 <0>        -0.2277
      5 C4          0.1330   -2.1706    0.7049 C.ar      1 <0>        -0.0914
      6 C5          0.1837   -0.8414    1.1638 C.ar      1 <0>         0.0961
      7 C6          0.2292   -0.5942    2.5318 C.ar      1 <0>        -0.1159
      8 C7          0.2278   -1.6491    3.4182 C.ar      1 <0>        -0.0936
      9 C8          0.1813   -2.9585    2.9603 C.ar      1 <0>        -0.1270
     10 C9          0.1275   -3.2239    1.6208 C.ar      1 <0>        -0.0902
     11 C10         0.0475   -3.2543   -1.7162 C.3       1 <0>         0.1514
     12 C11        -1.4063   -3.6903   -1.9095 C.3       1 <0>        -0.0257
     13 N2         -1.4485   -4.8957   -2.7481 N.4       1 <0>        -0.6437
     14 O1          0.5975   -2.8589   -2.9744 O.3       1 <0>        -0.2934
     15 C12         1.3426   -3.7809   -3.6393 C.ar      1 <0>         0.0615
     16 C13         1.4470   -5.0790   -3.1580 C.ar      1 <0>        -0.2021
     17 C14         2.2266   -5.9921   -3.8789 C.ar      1 <0>        -0.0447
     18 C15         2.8640   -5.5624   -5.0461 C.ar      1 <0>         0.0826
     19 N3          2.7355   -4.3203   -5.4628 N.ar      1 <0>        -0.4248
     20 C16         2.0039   -3.4374   -4.8108 C.ar      1 <0>         0.0908
     21 C17         2.3729   -7.3831   -3.4141 C.2       1 <0>        -0.1306
     22 C18         3.1231   -8.2494   -4.1138 C.2       1 <0>        -0.0628
     23 C19         3.2694   -9.6400   -3.6491 C.ar      1 <0>        -0.0318
     24 C20         2.6296  -10.0812   -2.4826 C.ar      1 <0>        -0.1651
     25 C21         2.7945  -11.3910   -2.0851 C.ar      1 <0>         0.1037
     26 N4          3.5416  -12.2233   -2.7856 N.ar      1 <0>        -0.4773
     27 C22         4.1615  -11.8501   -3.8892 C.ar      1 <0>         0.1069
     28 C23         4.0477  -10.5608   -4.3642 C.ar      1 <0>        -0.1529
     29 H1          1.2463    1.7737    0.0598 H         1 <0>         0.0788
     30 H2         -0.3194    1.8311   -0.7850 H         1 <0>         0.0905
     31 H3         -0.2687    1.7944    0.9939 H         1 <0>         0.0886
     32 H4          0.1113   -0.4020   -2.0896 H         1 <0>         0.1770
     33 H5          0.2659    0.4211    2.8979 H         1 <0>         0.1261
     34 H6          0.2636   -1.4551    4.4800 H         1 <0>         0.1329
     35 H7          0.1812   -3.7739    3.6685 H         1 <0>         0.1286
     36 H8          0.0928   -4.2454    1.2717 H         1 <0>         0.1169
     37 H9          0.6254   -4.0854   -1.3121 H         1 <0>         0.1041
     38 H10        -1.8527   -3.9071   -0.9391 H         1 <0>         0.1554
     39 H11        -1.9641   -2.8899   -2.3955 H         1 <0>         0.1500
     40 H12        -1.0353   -4.6950   -3.6465 H         1 <0>         0.4340
     41 H13        -0.9321   -5.6367   -2.2983 H         1 <0>         0.4305
     42 H14         0.9407   -5.3766   -2.2516 H         1 <0>         0.1342
     43 H15         3.4682   -6.2562   -5.6117 H         1 <0>         0.1691
     44 H16         1.9217   -2.4301   -5.1916 H         1 <0>         0.1728
     45 H17         1.8767   -7.7056   -2.5106 H         1 <0>         0.1305
     46 H18         3.6193   -7.9269   -5.0172 H         1 <0>         0.1344
     47 H19         2.0172   -9.4055   -1.9040 H         1 <0>         0.1342
     48 H20         2.3057  -11.7407   -1.1878 H         1 <0>         0.1598
     49 H21         4.7630  -12.5657   -4.4301 H         1 <0>         0.1633
     50 H22         4.5538  -10.2637   -5.2708 H         1 <0>         0.1424
     51 H23        -2.4073   -5.1833   -2.8756 H         1 <0>         0.4421
@<TRIPOS>BOND
     1    1    2 1
     2    1   29 1
     3    1   30 1
     4    1   31 1
     5    2    6 1
     6    2    3 1
     7    3    4 2
     8    3   32 1
     9    4    5 1
    10    4   11 1
    11    5   10 ar
    12    5    6 ar
    13    6    7 ar
    14    7    8 ar
    15    7   33 1
    16    8    9 ar
    17    8   34 1
    18    9   10 ar
    19    9   35 1
    20   10   36 1
    21   11   12 1
    22   11   14 1
    23   11   37 1
    24   12   13 1
    25   12   38 1
    26   12   39 1
    27   13   40 1
    28   13   41 1
    29   13   51 1
    30   14   15 1
    31   15   20 ar
    32   15   16 ar
    33   16   17 ar
    34   16   42 1
    35   17   18 ar
    36   17   21 1
    37   18   19 ar
    38   18   43 1
    39   19   20 ar
    40   20   44 1
    41   21   22 2
    42   21   45 1
    43   22   23 1
    44   22   46 1
    45   23   28 ar
    46   23   24 ar
    47   24   25 ar
    48   24   47 1
    49   25   26 ar
    50   25   48 1
    51   26   27 ar
    52   27   28 ar
    53   27   49 1
    54   28   50 1
@<TRIPOS>MOLECULE
CHEMBL259968
   70    76     0     0     0
SMALL
USER_CHARGES

@<TRIPOS>ATOM
      1 C1         -0.0167    1.3791    0.0096 C.ar      1 <0>        -0.1079
      2 C2          1.1686    2.0924    0.0021 C.ar      1 <0>        -0.1123
      3 C3          2.3774    1.4270   -0.0135 C.ar      1 <0>        -0.1018
      4 C4          2.4026    0.0330   -0.0212 C.ar      1 <0>        -0.0545
      5 C5          1.2048   -0.6804   -0.0131 C.ar      1 <0>        -0.0974
      6 C6          0.0021   -0.0041    0.0020 C.ar      1 <0>        -0.1220
      7 C7          3.6978   -0.6876   -0.0384 C.ar      1 <0>        -0.0716
      8 C8          4.6749   -0.3464   -0.9597 C.ar      1 <0>        -0.0428
      9 C9          5.8834   -1.0613   -0.9322 C.ar      1 <0>        -0.0674
     10 C10         6.9330   -0.7869   -1.8264 C.ar      1 <0>        -0.1444
     11 C11         8.0765   -1.5231   -1.7386 C.ar      1 <0>         0.0885
     12 N1          8.2197   -2.4836   -0.8367 N.ar      1 <0>        -0.4663
     13 C12         7.2832   -2.7936    0.0281 C.ar      1 <0>         0.1705
     14 C13         6.0622   -2.0952    0.0243 C.ar      1 <0>         0.0710
     15 N2          5.0898   -2.3850    0.8901 N.ar      1 <0>        -0.4356
     16 C14         3.9489   -1.7255    0.8892 C.ar      1 <0>         0.1892
     17 C15         2.9042   -2.0831    1.8771 C.ar      1 <0>        -0.0102
     18 C16         2.0776   -1.0948    2.4105 C.ar      1 <0>        -0.0826
     19 C17         1.1061   -1.4340    3.3299 C.ar      1 <0>        -0.0997
     20 C18         0.9514   -2.7515    3.7226 C.ar      1 <0>        -0.1501
     21 C19         1.7684   -3.7363    3.1970 C.ar      1 <0>        -0.0960
     22 C20         2.7399   -3.4101    2.2729 C.ar      1 <0>        -0.0758
     23 C21        -0.1112   -3.1152    4.7275 C.3       1 <0>         0.0432
     24 N3         -1.3612   -3.4339    4.0247 N.4       1 <0>        -0.3835
     25 C22        -1.8562   -2.2331    3.3409 C.3       1 <0>        -0.0112
     26 C23        -3.1141   -2.5790    2.5411 C.3       1 <0>        -0.1378
     27 C24        -4.1902   -3.1054    3.4950 C.3       1 <0>         0.0021
     28 C25        -3.6367   -4.3129    4.2570 C.3       1 <0>        -0.1401
     29 C26        -2.3595   -3.9028    4.9933 C.3       1 <0>        -0.0033
     30 C27        -5.4042   -3.5214    2.7049 C.2       1 <0>         0.2198
     31 N4         -6.6230   -3.0083    2.8390 N.2       1 <0>        -0.5190
     32 C28        -7.4490   -3.5955    1.9973 C.2       1 <0>         0.3520
     33 N5         -6.7438   -4.5145    1.2991 N.pl3     1 <0>        -0.4477
     34 H1         -7.0811   -5.1039    0.6066 H         1 <0>         0.4543
     35 N6         -5.4242   -4.4410    1.7743 N.2       1 <0>        -0.3001
     36 C29        -8.8917   -3.3023    1.8436 C.ar      1 <0>         0.1604
     37 C30        -9.4855   -2.3186    2.6335 C.ar      1 <0>        -0.1102
     38 C31       -10.8355   -2.0557    2.4779 C.ar      1 <0>        -0.0738
     39 C32       -11.5483   -2.7852    1.5369 C.ar      1 <0>        -0.1434
     40 C33       -10.8955   -3.7468    0.7870 C.ar      1 <0>         0.1095
     41 N7         -9.6087   -3.9742    0.9510 N.ar      1 <0>        -0.4749
     42 H2         -0.9603    1.9042    0.0260 H         1 <0>         0.1267
     43 H3          1.1478    3.1722    0.0082 H         1 <0>         0.1304
     44 H4          3.3021    1.9849   -0.0200 H         1 <0>         0.1279
     45 H5          1.2183   -1.7603   -0.0194 H         1 <0>         0.1207
     46 H6         -0.9264   -0.5557    0.0079 H         1 <0>         0.1230
     47 H7          4.5120    0.4445   -1.6768 H         1 <0>         0.1519
     48 H8          6.8349   -0.0084   -2.5685 H         1 <0>         0.1473
     49 H9          8.8873   -1.3186   -2.4222 H         1 <0>         0.1654
     50 H10         7.4497   -3.5858    0.7430 H         1 <0>         0.1757
     51 H11         2.1977   -0.0659    2.1050 H         1 <0>         0.1423
     52 H12         0.4655   -0.6695    3.7440 H         1 <0>         0.1348
     53 H13         1.6429   -4.7631    3.5074 H         1 <0>         0.1357
     54 H14         3.3743   -4.1805    1.8599 H         1 <0>         0.1419
     55 H15         0.2138   -3.9825    5.3022 H         1 <0>         0.1391
     56 H16        -0.2773   -2.2744    5.4010 H         1 <0>         0.1375
     57 H17        -2.0947   -1.4675    4.0792 H         1 <0>         0.1331
     58 H18        -1.0880   -1.8579    2.6648 H         1 <0>         0.1363
     59 H19        -3.4811   -1.6858    2.0356 H         1 <0>         0.1151
     60 H20        -2.8766   -3.3445    1.8023 H         1 <0>         0.0960
     61 H21        -4.4648   -2.3227    4.2023 H         1 <0>         0.1175
     62 H22        -4.3772   -4.6590    4.9780 H         1 <0>         0.1164
     63 H23        -3.4101   -5.1144    3.5539 H         1 <0>         0.0966
     64 H24        -1.9628   -4.7602    5.5370 H         1 <0>         0.1360
     65 H25        -2.5872   -3.1016    5.6963 H         1 <0>         0.1338
     66 H26        -8.9005   -1.7699    3.3568 H         1 <0>         0.1515
     67 H27       -11.3233   -1.2999    3.0756 H         1 <0>         0.1489
     68 H28       -12.6031   -2.6041    1.3917 H         1 <0>         0.1481
     69 H29       -11.4478   -4.3164    0.0542 H         1 <0>         0.1699
     70 H30        -1.1879   -4.1586    3.3443 H         1 <0>         0.4235
@<TRIPOS>BOND
     1    1    6 ar
     2    1    2 ar
     3    1   42 1
     4    2    3 ar
     5    2   43 1
     6    3    4 ar
     7    3   44 1
     8    4    5 ar
     9    4    7 1
    10    5    6 ar
    11    5   45 1
    12    6   46 1
    13    7   16 ar
    14    7    8 ar
    15    8    9 ar
    16    8   47 1
    17    9   14 ar
    18    9   10 ar
    19   10   11 ar
    20   10   48 1
    21   11   12 ar
    22   11   49 1
    23   12   13 ar
    24   13   14 ar
    25   13   50 1
    26   14   15 ar
    27   15   16 ar
    28   16   17 1
    29   17   22 ar
    30   17   18 ar
    31   18   19 ar
    32   18   51 1
    33   19   20 ar
    34   19   52 1
    35   20   21 ar
    36   20   23 1
    37   21   22 ar
    38   21   53 1
    39   22   54 1
    40   23   24 1
    41   23   55 1
    42   23   56 1
    43   24   29 1
    44   24   25 1
    45   24   70 1
    46   25   26 1
    47   25   57 1
    48   25   58 1
    49   26   27 1
    50   26   59 1
    51   26   60 1
    52   27   28 1
    53   27   30 1
    54   27   61 1
    55   28   29 1
    56   28   62 1
    57   28   63 1
    58   29   64 1
    59   29   65 1
    60   30   35 2
    61   30   31 1
    62   31   32 2
    63   32   33 1
    64   32   36 1
    65   33   34 1
    66   33   35 1
    67   36   41 ar
    68   36   37 ar
    69   37   38 ar
    70   37   66 1
    71   38   39 ar
    72   38   67 1
    73   39   40 ar
    74   39   68 1
    75   40   41 ar
    76   40   69 1
@<TRIPOS>MOLECULE
CHEMBL259968
   70    76     0     0     0
SMALL
USER_CHARGES

@<TRIPOS>ATOM
      1 C1         -0.0167    1.3791    0.0096 C.ar      1 <0>        -0.1072
      2 C2          1.1686    2.0924    0.0021 C.ar      1 <0>        -0.1117
      3 C3          2.3774    1.4270   -0.0135 C.ar      1 <0>        -0.1015
      4 C4          2.4026    0.0330   -0.0212 C.ar      1 <0>        -0.0549
      5 C5          1.2048   -0.6804   -0.0131 C.ar      1 <0>        -0.0984
      6 C6          0.0021   -0.0041    0.0020 C.ar      1 <0>        -0.1224
      7 C7          3.6978   -0.6876   -0.0384 C.ar      1 <0>        -0.0716
      8 C8          4.6749   -0.3464   -0.9597 C.ar      1 <0>        -0.0425
      9 C9          5.8834   -1.0613   -0.9322 C.ar      1 <0>        -0.0670
     10 C10         6.9330   -0.7869   -1.8264 C.ar      1 <0>        -0.1444
     11 C11         8.0765   -1.5231   -1.7386 C.ar      1 <0>         0.0890
     12 N1          8.2197   -2.4836   -0.8367 N.ar      1 <0>        -0.4660
     13 C12         7.2832   -2.7936    0.0281 C.ar      1 <0>         0.1705
     14 C13         6.0622   -2.0952    0.0243 C.ar      1 <0>         0.0708
     15 N2          5.0898   -2.3850    0.8901 N.ar      1 <0>        -0.4354
     16 C14         3.9489   -1.7255    0.8892 C.ar      1 <0>         0.1878
     17 C15         2.9042   -2.0831    1.8771 C.ar      1 <0>        -0.0082
     18 C16         2.0776   -1.0948    2.4105 C.ar      1 <0>        -0.0821
     19 C17         1.1061   -1.4340    3.3299 C.ar      1 <0>        -0.0995
     20 C18         0.9514   -2.7515    3.7226 C.ar      1 <0>        -0.1523
     21 C19         1.7684   -3.7363    3.1970 C.ar      1 <0>        -0.0963
     22 C20         2.7399   -3.4101    2.2729 C.ar      1 <0>        -0.0763
     23 C21        -0.1112   -3.1152    4.7275 C.3       1 <0>         0.0435
     24 N3         -1.3612   -3.4339    4.0247 N.4       1 <0>        -0.3845
     25 C22        -1.8562   -2.2331    3.3409 C.3       1 <0>        -0.0123
     26 C23        -3.1141   -2.5790    2.5411 C.3       1 <0>        -0.1383
     27 C24        -4.1902   -3.1054    3.4950 C.3       1 <0>        -0.0161
     28 C25        -3.6367   -4.3129    4.2570 C.3       1 <0>        -0.1490
     29 C26        -2.3595   -3.9028    4.9933 C.3       1 <0>        -0.0022
     30 C27        -5.4042   -3.5214    2.7049 C.2       1 <0>         0.2712
     31 N4         -6.4570   -2.7830    2.4743 N.2       1 <0>        -0.4884
     32 C28        -7.3414   -3.4710    1.7395 C.2       1 <0>         0.2883
     33 N5         -6.8487   -4.6658    1.4962 N.2       1 <0>        -0.2780
     34 H1         -4.9696   -5.4631    2.1098 H         1 <0>         0.4404
     35 N6         -5.5871   -4.7150    2.1112 N.pl3     1 <0>        -0.4754
     36 C29        -8.6586   -2.9683    1.2774 C.ar      1 <0>         0.1847
     37 C30        -9.4868   -3.7948    0.5208 C.ar      1 <0>        -0.1315
     38 C31       -10.7128   -3.3121    0.0972 C.ar      1 <0>        -0.0745
     39 C32       -11.0708   -2.0170    0.4447 C.ar      1 <0>        -0.1509
     40 C33       -10.1999   -1.2518    1.1978 C.ar      1 <0>         0.1034
     41 N7         -9.0404   -1.7377    1.5925 N.ar      1 <0>        -0.4470
     42 H2         -0.9603    1.9042    0.0260 H         1 <0>         0.1275
     43 H3          1.1478    3.1722    0.0082 H         1 <0>         0.1309
     44 H4          3.3021    1.9849   -0.0200 H         1 <0>         0.1281
     45 H5          1.2183   -1.7603   -0.0194 H         1 <0>         0.1200
     46 H6         -0.9264   -0.5557    0.0079 H         1 <0>         0.1226
     47 H7          4.5120    0.4445   -1.6768 H         1 <0>         0.1522
     48 H8          6.8349   -0.0084   -2.5685 H         1 <0>         0.1476
     49 H9          8.8873   -1.3186   -2.4222 H         1 <0>         0.1657
     50 H10         7.4497   -3.5858    0.7430 H         1 <0>         0.1757
     51 H11         2.1977   -0.0659    2.1050 H         1 <0>         0.1429
     52 H12         0.4655   -0.6695    3.7440 H         1 <0>         0.1353
     53 H13         1.6429   -4.7631    3.5074 H         1 <0>         0.1353
     54 H14         3.3743   -4.1805    1.8599 H         1 <0>         0.1421
     55 H15         0.2138   -3.9825    5.3022 H         1 <0>         0.1399
     56 H16        -0.2773   -2.2744    5.4010 H         1 <0>         0.1387
     57 H17        -2.0947   -1.4675    4.0792 H         1 <0>         0.1366
     58 H18        -1.0880   -1.8579    2.6648 H         1 <0>         0.1392
     59 H19        -3.4811   -1.6858    2.0356 H         1 <0>         0.1243
     60 H20        -2.8766   -3.3445    1.8023 H         1 <0>         0.0898
     61 H21        -4.4648   -2.3227    4.2023 H         1 <0>         0.1306
     62 H22        -4.3772   -4.6590    4.9780 H         1 <0>         0.1234
     63 H23        -3.4101   -5.1144    3.5539 H         1 <0>         0.0882
     64 H24        -1.9628   -4.7602    5.5370 H         1 <0>         0.1391
     65 H25        -2.5872   -3.1016    5.6963 H         1 <0>         0.1376
     66 H26        -9.1762   -4.7979    0.2681 H         1 <0>         0.1436
     67 H27       -11.3759   -3.9294   -0.4908 H         1 <0>         0.1456
     68 H28       -12.0205   -1.6107    0.1293 H         1 <0>         0.1450
     69 H29       -10.4754   -0.2436    1.4699 H         1 <0>         0.1668
     70 H30        -1.1879   -4.1586    3.3443 H         1 <0>         0.4220
@<TRIPOS>BOND
     1    1    6 ar
     2    1    2 ar
     3    1   42 1
     4    2    3 ar
     5    2   43 1
     6    3    4 ar
     7    3   44 1
     8    4    5 ar
     9    4    7 1
    10    5    6 ar
    11    5   45 1
    12    6   46 1
    13    7   16 ar
    14    7    8 ar
    15    8    9 ar
    16    8   47 1
    17    9   14 ar
    18    9   10 ar
    19   10   11 ar
    20   10   48 1
    21   11   12 ar
    22   11   49 1
    23   12   13 ar
    24   13   14 ar
    25   13   50 1
    26   14   15 ar
    27   15   16 ar
    28   16   17 1
    29   17   22 ar
    30   17   18 ar
    31   18   19 ar
    32   18   51 1
    33   19   20 ar
    34   19   52 1
    35   20   21 ar
    36   20   23 1
    37   21   22 ar
    38   21   53 1
    39   22   54 1
    40   23   24 1
    41   23   55 1
    42   23   56 1
    43   24   29 1
    44   24   25 1
    45   24   70 1
    46   25   26 1
    47   25   57 1
    48   25   58 1
    49   26   27 1
    50   26   59 1
    51   26   60 1
    52   27   28 1
    53   27   61 1
    54   27   30 1
    55   28   29 1
    56   28   62 1
    57   28   63 1
    58   29   64 1
    59   29   65 1
    60   30   31 2
    61   30   35 1
    62   31   32 1
    63   32   36 1
    64   32   33 2
    65   33   35 1
    66   34   35 1
    67   36   41 ar
    68   36   37 ar
    69   37   38 ar
    70   37   66 1
    71   38   39 ar
    72   38   67 1
    73   39   40 ar
    74   39   68 1
    75   40   41 ar
    76   40   69 1
@<TRIPOS>MOLECULE
CHEMBL259982
   71    77     0     0     0
SMALL
USER_CHARGES

@<TRIPOS>ATOM
      1 C1         -0.0167    1.3791    0.0096 C.ar      1 <0>        -0.1096
      2 C2          1.1686    2.0924    0.0021 C.ar      1 <0>        -0.1122
      3 C3          2.3774    1.4269   -0.0129 C.ar      1 <0>        -0.1037
      4 C4          2.4026    0.0330   -0.0206 C.ar      1 <0>        -0.0494
      5 C5          1.2049   -0.6804   -0.0130 C.ar      1 <0>        -0.0992
      6 C6          0.0021   -0.0041    0.0020 C.ar      1 <0>        -0.1213
      7 C7          3.6978   -0.6877   -0.0373 C.ar      1 <0>        -0.0974
      8 C8          4.6763   -0.3476   -0.9576 C.ar      1 <0>        -0.0227
      9 C9          5.8866   -1.0617   -0.9306 C.ar      1 <0>        -0.1489
     10 C10         6.9249   -0.7709   -1.8343 C.ar      1 <0>        -0.0423
     11 C11         8.0755   -1.5042   -1.7522 C.ar      1 <0>        -0.1698
     12 C12         8.1910   -2.5057   -0.7916 C.ar      1 <0>         0.1688
     13 N1          7.2207   -2.7734    0.0487 N.ar      1 <0>        -0.4654
     14 C13         6.0680   -2.0947    0.0240 C.ar      1 <0>         0.3110
     15 N2          5.0919   -2.3827    0.8895 N.ar      1 <0>        -0.4470
     16 C14         3.9497   -1.7249    0.8891 C.ar      1 <0>         0.2187
     17 C15         2.9058   -2.0841    1.8768 C.ar      1 <0>        -0.0132
     18 C16         2.0780   -1.0970    2.4110 C.ar      1 <0>        -0.0803
     19 C17         1.1071   -1.4378    3.3303 C.ar      1 <0>        -0.1007
     20 C18         0.9539   -2.7557    3.7223 C.ar      1 <0>        -0.1484
     21 C19         1.7720   -3.7394    3.1960 C.ar      1 <0>        -0.0967
     22 C20         2.7430   -3.4117    2.2720 C.ar      1 <0>        -0.0724
     23 C21        -0.1081   -3.1211    4.7271 C.3       1 <0>         0.0430
     24 N3         -1.3578   -3.4409    4.0243 N.4       1 <0>        -0.3826
     25 C22        -1.8543   -2.2403    3.3413 C.3       1 <0>        -0.0125
     26 C23        -3.1119   -2.5872    2.5415 C.3       1 <0>        -0.1356
     27 C24        -4.1873   -3.1153    3.4953 C.3       1 <0>        -0.0125
     28 C25        -3.6322   -4.3226    4.2566 C.3       1 <0>        -0.1398
     29 C26        -2.3554   -3.9114    4.9928 C.3       1 <0>        -0.0049
     30 C27        -5.4009   -3.5323    2.7052 C.2       1 <0>         0.0624
     31 C28        -5.5905   -4.7742    2.0998 C.2       1 <0>        -0.2179
     32 C29        -6.8106   -4.7586    1.4845 C.2       1 <0>         0.1385
     33 N4         -7.3613   -3.5313    1.7067 N.pl3     1 <0>        -0.4607
     34 H1         -8.2264   -3.2267    1.3907 H         1 <0>         0.4441
     35 N5         -6.4556   -2.7911    2.4773 N.2       1 <0>        -0.2610
     36 C30        -7.4206   -5.8676    0.7193 C.ar      1 <0>         0.1706
     37 C31        -8.6788   -5.6992    0.1403 C.ar      1 <0>        -0.1597
     38 C32        -9.2360   -6.7458   -0.5723 C.ar      1 <0>        -0.0650
     39 C33        -8.5177   -7.9286   -0.6839 C.ar      1 <0>        -0.1582
     40 C34        -7.2756   -8.0274   -0.0849 C.ar      1 <0>         0.1109
     41 N6         -6.7643   -7.0140    0.5841 N.ar      1 <0>        -0.4636
     42 H2         -0.9603    1.9042    0.0260 H         1 <0>         0.1262
     43 H3          1.1478    3.1722    0.0077 H         1 <0>         0.1297
     44 H4          3.3021    1.9847   -0.0191 H         1 <0>         0.1273
     45 H5          1.2183   -1.7603   -0.0193 H         1 <0>         0.1207
     46 H6         -0.9264   -0.5557    0.0082 H         1 <0>         0.1229
     47 H7          4.5135    0.4431   -1.6750 H         1 <0>         0.1507
     48 H8          6.8159    0.0098   -2.5725 H         1 <0>         0.1479
     49 H9          8.8924   -1.3077   -2.4307 H         1 <0>         0.1508
     50 H10         9.1052   -3.0782   -0.7375 H         1 <0>         0.1737
     51 H11         2.1969   -0.0678    2.1059 H         1 <0>         0.1428
     52 H12         0.4657   -0.6742    3.7449 H         1 <0>         0.1349
     53 H13         1.6480   -4.7664    3.5061 H         1 <0>         0.1361
     54 H14         3.3781   -4.1811    1.8584 H         1 <0>         0.1425
     55 H15         0.2181   -3.9884    5.3013 H         1 <0>         0.1389
     56 H16        -0.2750   -2.2810    5.4012 H         1 <0>         0.1367
     57 H17        -2.0935   -1.4754    4.0800 H         1 <0>         0.1309
     58 H18        -1.0866   -1.8638    2.6652 H         1 <0>         0.1349
     59 H19        -3.4799   -1.6941    2.0366 H         1 <0>         0.1141
     60 H20        -2.8736   -3.3520    1.8023 H         1 <0>         0.0927
     61 H21        -4.4626   -2.3334    4.2030 H         1 <0>         0.1043
     62 H22        -4.3723   -4.6700    4.9775 H         1 <0>         0.1171
     63 H23        -3.4048   -5.1234    3.5529 H         1 <0>         0.0960
     64 H24        -1.9577   -4.7687    5.5360 H         1 <0>         0.1349
     65 H25        -2.5839   -3.1108    5.6963 H         1 <0>         0.1314
     66 H26        -4.8963   -5.6014    2.1146 H         1 <0>         0.1567
     67 H27        -9.2103   -4.7651    0.2473 H         1 <0>         0.1320
     68 H28       -10.2084   -6.6452   -1.0313 H         1 <0>         0.1446
     69 H29        -8.9256   -8.7641   -1.2334 H         1 <0>         0.1452
     70 H30        -6.7148   -8.9464   -0.1702 H         1 <0>         0.1672
     71 H31        -1.1838   -4.1650    3.3435 H         1 <0>         0.4230
@<TRIPOS>BOND
     1    1    6 ar
     2    1    2 ar
     3    1   42 1
     4    2    3 ar
     5    2   43 1
     6    3    4 ar
     7    3   44 1
     8    4    5 ar
     9    4    7 1
    10    5    6 ar
    11    5   45 1
    12    6   46 1
    13    7   16 ar
    14    7    8 ar
    15    8    9 ar
    16    8   47 1
    17    9   14 ar
    18    9   10 ar
    19   10   11 ar
    20   10   48 1
    21   11   12 ar
    22   11   49 1
    23   12   13 ar
    24   12   50 1
    25   13   14 ar
    26   14   15 ar
    27   15   16 ar
    28   16   17 1
    29   17   22 ar
    30   17   18 ar
    31   18   19 ar
    32   18   51 1
    33   19   20 ar
    34   19   52 1
    35   20   21 ar
    36   20   23 1
    37   21   22 ar
    38   21   53 1
    39   22   54 1
    40   23   24 1
    41   23   55 1
    42   23   56 1
    43   24   29 1
    44   24   25 1
    45   24   71 1
    46   25   26 1
    47   25   57 1
    48   25   58 1
    49   26   27 1
    50   26   59 1
    51   26   60 1
    52   27   28 1
    53   27   30 1
    54   27   61 1
    55   28   29 1
    56   28   62 1
    57   28   63 1
    58   29   64 1
    59   29   65 1
    60   30   35 2
    61   30   31 1
    62   31   32 2
    63   31   66 1
    64   32   33 1
    65   32   36 1
    66   33   34 1
    67   33   35 1
    68   36   41 ar
    69   36   37 ar
    70   37   38 ar
    71   37   67 1
    72   38   39 ar
    73   38   68 1
    74   39   40 ar
    75   39   69 1
    76   40   41 ar
    77   40   70 1
@<TRIPOS>MOLECULE
CHEMBL259982
   71    77     0     0     0
SMALL
USER_CHARGES

@<TRIPOS>ATOM
      1 C1         -0.0167    1.3791    0.0096 C.ar      1 <0>        -0.1095
      2 C2          1.1686    2.0924    0.0021 C.ar      1 <0>        -0.1115
      3 C3          2.3774    1.4269   -0.0129 C.ar      1 <0>        -0.1032
      4 C4          2.4026    0.0330   -0.0206 C.ar      1 <0>        -0.0489
      5 C5          1.2049   -0.6804   -0.0130 C.ar      1 <0>        -0.0999
      6 C6          0.0021   -0.0041    0.0020 C.ar      1 <0>        -0.1221
      7 C7          3.6978   -0.6877   -0.0373 C.ar      1 <0>        -0.0982
      8 C8          4.6763   -0.3476   -0.9576 C.ar      1 <0>        -0.0220
      9 C9          5.8866   -1.0617   -0.9306 C.ar      1 <0>        -0.1486
     10 C10         6.9249   -0.7709   -1.8343 C.ar      1 <0>        -0.0423
     11 C11         8.0755   -1.5042   -1.7522 C.ar      1 <0>        -0.1691
     12 C12         8.1910   -2.5057   -0.7916 C.ar      1 <0>         0.1694
     13 N1          7.2207   -2.7734    0.0487 N.ar      1 <0>        -0.4655
     14 C13         6.0680   -2.0947    0.0240 C.ar      1 <0>         0.3110
     15 N2          5.0919   -2.3827    0.8895 N.ar      1 <0>        -0.4466
     16 C14         3.9497   -1.7249    0.8891 C.ar      1 <0>         0.2174
     17 C15         2.9058   -2.0841    1.8768 C.ar      1 <0>        -0.0115
     18 C16         2.0780   -1.0970    2.4110 C.ar      1 <0>        -0.0800
     19 C17         1.1071   -1.4378    3.3303 C.ar      1 <0>        -0.1008
     20 C18         0.9539   -2.7557    3.7223 C.ar      1 <0>        -0.1504
     21 C19         1.7720   -3.7394    3.1960 C.ar      1 <0>        -0.0969
     22 C20         2.7430   -3.4117    2.2720 C.ar      1 <0>        -0.0726
     23 C21        -0.1081   -3.1211    4.7271 C.3       1 <0>         0.0432
     24 N3         -1.3578   -3.4409    4.0243 N.4       1 <0>        -0.3832
     25 C22        -1.8543   -2.2403    3.3413 C.3       1 <0>        -0.0121
     26 C23        -3.1119   -2.5872    2.5415 C.3       1 <0>        -0.1454
     27 C24        -4.1873   -3.1153    3.4953 C.3       1 <0>        -0.0294
     28 C25        -3.6322   -4.3226    4.2566 C.3       1 <0>        -0.1407
     29 C26        -2.3554   -3.9114    4.9928 C.3       1 <0>        -0.0059
     30 C27        -5.4009   -3.5323    2.7052 C.2       1 <0>         0.0664
     31 C28        -6.6863   -3.4132    3.1023 C.2       1 <0>        -0.2081
     32 C29        -7.5049   -3.9189    2.0733 C.2       1 <0>         0.1282
     33 N4         -6.7221   -4.3251    1.0958 N.2       1 <0>        -0.2578
     34 H1         -4.6073   -4.2839    0.9424 H         1 <0>         0.4373
     35 N5         -5.3946   -4.0853    1.4731 N.pl3     1 <0>        -0.4665
     36 C30        -8.9868   -3.9824    2.0885 C.ar      1 <0>         0.1832
     37 C31        -9.6668   -4.5167    0.9958 C.ar      1 <0>        -0.1397
     38 C32       -11.0493   -4.5693    1.0245 C.ar      1 <0>        -0.0740
     39 C33       -11.7077   -4.0853    2.1464 C.ar      1 <0>        -0.1591
     40 C34       -10.9701   -3.5685    3.1950 C.ar      1 <0>         0.1049
     41 N6         -9.6537   -3.5351    3.1444 N.ar      1 <0>        -0.4671
     42 H2         -0.9603    1.9042    0.0260 H         1 <0>         0.1264
     43 H3          1.1478    3.1722    0.0077 H         1 <0>         0.1303
     44 H4          3.3021    1.9847   -0.0191 H         1 <0>         0.1278
     45 H5          1.2183   -1.7603   -0.0193 H         1 <0>         0.1200
     46 H6         -0.9264   -0.5557    0.0082 H         1 <0>         0.1216
     47 H7          4.5135    0.4431   -1.6750 H         1 <0>         0.1510
     48 H8          6.8159    0.0098   -2.5725 H         1 <0>         0.1482
     49 H9          8.8924   -1.3077   -2.4307 H         1 <0>         0.1512
     50 H10         9.1052   -3.0782   -0.7375 H         1 <0>         0.1740
     51 H11         2.1969   -0.0678    2.1059 H         1 <0>         0.1433
     52 H12         0.4657   -0.6742    3.7449 H         1 <0>         0.1350
     53 H13         1.6480   -4.7664    3.5061 H         1 <0>         0.1357
     54 H14         3.3781   -4.1811    1.8584 H         1 <0>         0.1428
     55 H15         0.2181   -3.9884    5.3013 H         1 <0>         0.1395
     56 H16        -0.2750   -2.2810    5.4012 H         1 <0>         0.1379
     57 H17        -2.0935   -1.4754    4.0800 H         1 <0>         0.1343
     58 H18        -1.0866   -1.8638    2.6652 H         1 <0>         0.1368
     59 H19        -3.4799   -1.6941    2.0366 H         1 <0>         0.1191
     60 H20        -2.8736   -3.3520    1.8023 H         1 <0>         0.0842
     61 H21        -4.4626   -2.3334    4.2030 H         1 <0>         0.1175
     62 H22        -4.3723   -4.6700    4.9775 H         1 <0>         0.1216
     63 H23        -3.4048   -5.1234    3.5529 H         1 <0>         0.0884
     64 H24        -1.9577   -4.7687    5.5360 H         1 <0>         0.1358
     65 H25        -2.5839   -3.1108    5.6963 H         1 <0>         0.1344
     66 H26        -7.0262   -3.0034    4.0420 H         1 <0>         0.1591
     67 H27        -9.1225   -4.8842    0.1385 H         1 <0>         0.1411
     68 H28       -11.6036   -4.9776    0.1923 H         1 <0>         0.1420
     69 H29       -12.7861   -4.1118    2.1995 H         1 <0>         0.1423
     70 H30       -11.4794   -3.1911    4.0694 H         1 <0>         0.1646
     71 H31        -1.1838   -4.1650    3.3435 H         1 <0>         0.4217
@<TRIPOS>BOND
     1    1    6 ar
     2    1    2 ar
     3    1   42 1
     4    2    3 ar
     5    2   43 1
     6    3    4 ar
     7    3   44 1
     8    4    5 ar
     9    4    7 1
    10    5    6 ar
    11    5   45 1
    12    6   46 1
    13    7   16 ar
    14    7    8 ar
    15    8    9 ar
    16    8   47 1
    17    9   14 ar
    18    9   10 ar
    19   10   11 ar
    20   10   48 1
    21   11   12 ar
    22   11   49 1
    23   12   13 ar
    24   12   50 1
    25   13   14 ar
    26   14   15 ar
    27   15   16 ar
    28   16   17 1
    29   17   22 ar
    30   17   18 ar
    31   18   19 ar
    32   18   51 1
    33   19   20 ar
    34   19   52 1
    35   20   21 ar
    36   20   23 1
    37   21   22 ar
    38   21   53 1
    39   22   54 1
    40   23   24 1
    41   23   55 1
    42   23   56 1
    43   24   29 1
    44   24   25 1
    45   24   71 1
    46   25   26 1
    47   25   57 1
    48   25   58 1
    49   26   27 1
    50   26   59 1
    51   26   60 1
    52   27   28 1
    53   27   61 1
    54   27   30 1
    55   28   29 1
    56   28   62 1
    57   28   63 1
    58   29   64 1
    59   29   65 1
    60   30   31 2
    61   30   35 1
    62   31   32 1
    63   31   66 1
    64   32   33 2
    65   32   36 1
    66   33   35 1
    67   34   35 1
    68   36   41 ar
    69   36   37 ar
    70   37   38 ar
    71   37   67 1
    72   38   39 ar
    73   38   68 1
    74   39   40 ar
    75   39   69 1
    76   40   41 ar
    77   40   70 1
@<TRIPOS>MOLECULE
CHEMBL207217
   59    65     0     0     0
SMALL
USER_CHARGES

@<TRIPOS>ATOM
      1 C1          0.2594    1.4864   -0.5674 C.ar      1 <0>        -0.1388
      2 C2          1.4825    2.1347   -0.6733 C.ar      1 <0>        -0.0975
      3 C3          2.6611    1.4230   -0.6282 C.ar      1 <0>        -0.1270
      4 C4          2.6281    0.0407   -0.4744 C.ar      1 <0>         0.0940
      5 C5          1.3862   -0.6113   -0.3670 C.ar      1 <0>        -0.0917
      6 C6          0.2038    0.1298   -0.4159 C.ar      1 <0>        -0.0753
      7 C7          1.6890   -2.0368   -0.2181 C.2       1 <0>        -0.1782
      8 C8          3.0256   -2.1587   -0.2426 C.2       1 <0>         0.0637
      9 N1          3.6035   -0.9278   -0.3951 N.pl3     1 <0>        -0.5934
     10 H1          4.5582   -0.7622   -0.4403 H         1 <0>         0.4175
     11 C9          0.6895   -3.1543   -0.0657 C.3       1 <0>        -0.0476
     12 C10         0.2162   -3.6072   -1.4483 C.3       1 <0>         0.1530
     13 H2          1.0796   -3.8646   -2.0617 H         1 <0>         0.0994
     14 C11        -0.6886   -4.8323   -1.3016 C.3       1 <0>         0.0323
     15 O1         -1.0763   -5.2960   -2.5965 O.3       1 <0>        -0.2988
     16 C12        -1.8871   -6.3858   -2.6445 C.ar      1 <0>         0.0882
     17 C13        -2.3026   -6.8998   -3.8663 C.ar      1 <0>        -0.0907
     18 C14        -3.1356   -8.0213   -3.8633 C.ar      1 <0>        -0.0706
     19 C15        -3.5150   -8.5774   -2.6423 C.ar      1 <0>         0.0830
     20 N2         -3.0969   -8.0567   -1.5072 N.ar      1 <0>        -0.4416
     21 C16        -2.3055   -7.0023   -1.4735 C.ar      1 <0>         0.0288
     22 C17        -3.6093   -8.6109   -5.1388 C.ar      1 <0>         0.0128
     23 C18        -3.2002   -8.0241   -6.3537 C.ar      1 <0>        -0.0775
     24 C19        -3.5980   -8.5151   -7.5485 C.ar      1 <0>        -0.0625
     25 C20        -4.4754   -9.6859   -7.5822 C.ar      1 <0>         0.0828
     26 C21        -4.8918  -10.2856   -6.2990 C.ar      1 <0>         0.0940
     27 C22        -4.4206   -9.7046   -5.0972 C.ar      1 <0>        -0.0810
     28 N3         -5.6677  -11.3124   -6.5628 N.2       1 <0>        -0.2548
     29 O2         -5.7847  -11.4206   -7.9711 O.3       1 <0>         0.0618
     30 N4         -5.0195  -10.3792   -8.5532 N.2       1 <0>        -0.2516
     31 N5         -0.5314   -2.5220   -2.0883 N.pl3     1 <0>        -0.7127
     32 C23        -0.5575   -2.4187   -3.4776 C.ar      1 <0>         0.2773
     33 C24         0.2425   -3.2911   -4.2379 C.ar      1 <0>        -0.0891
     34 C25         0.2618   -3.2416   -5.5892 C.ar      1 <0>        -0.0512
     35 C26        -0.5713   -2.2548   -6.2773 C.ar      1 <0>         0.0698
     36 C27        -1.4026   -1.3498   -5.4584 C.ar      1 <0>         0.1394
     37 C28        -1.3587   -1.4828   -4.0501 C.ar      1 <0>        -0.2312
     38 N6         -2.0611   -0.5555   -6.2719 N.2       1 <0>        -0.2938
     39 O3         -1.7015   -0.8956   -7.5999 O.3       1 <0>         0.0413
     40 N7         -0.7696   -1.9618   -7.5397 N.2       1 <0>        -0.2592
     41 H3         -0.6553    2.0597   -0.6005 H         1 <0>         0.1229
     42 H4          1.5103    3.2077   -0.7927 H         1 <0>         0.1256
     43 H5          3.6075    1.9364   -0.7122 H         1 <0>         0.1195
     44 H6         -0.7513   -0.3677   -0.3338 H         1 <0>         0.1145
     45 H7          3.5649   -3.0903   -0.1553 H         1 <0>         0.1702
     46 H8          1.1576   -3.9924    0.4507 H         1 <0>         0.0938
     47 H9         -0.1642   -2.8019    0.5132 H         1 <0>         0.0829
     48 H10        -0.1487   -5.6223   -0.7795 H         1 <0>         0.0806
     49 H11        -1.5773   -4.5615   -0.7315 H         1 <0>         0.0745
     50 H12        -1.9901   -6.4441   -4.7943 H         1 <0>         0.1491
     51 H13        -4.1590   -9.4443   -2.6272 H         1 <0>         0.1639
     52 H14        -1.9822   -6.6099   -0.5206 H         1 <0>         0.1616
     53 H15        -2.5528   -7.1601   -6.3291 H         1 <0>         0.1524
     54 H16        -3.2728   -8.0490   -8.4668 H         1 <0>         0.1594
     55 H17        -4.7079  -10.1267   -4.1455 H         1 <0>         0.1555
     56 H18        -1.0082   -1.8752   -1.5448 H         1 <0>         0.4065
     57 H19         0.8573   -4.0188   -3.7292 H         1 <0>         0.1500
     58 H20         0.8840   -3.9211   -6.1528 H         1 <0>         0.1546
     59 H21        -1.9606   -0.8361   -3.4289 H         1 <0>         0.1394
@<TRIPOS>BOND
     1    1    6 ar
     2    1    2 ar
     3    1   41 1
     4    2    3 ar
     5    2   42 1
     6    3    4 ar
     7    3   43 1
     8    4    9 1
     9    4    5 ar
    10    5    6 ar
    11    5    7 1
    12    6   44 1
    13    7    8 2
    14    7   11 1
    15    8    9 1
    16    8   45 1
    17    9   10 1
    18   11   12 1
    19   11   46 1
    20   11   47 1
    21   12   13 1
    22   12   14 1
    23   12   31 1
    24   14   15 1
    25   14   48 1
    26   14   49 1
    27   15   16 1
    28   16   21 ar
    29   16   17 ar
    30   17   18 ar
    31   17   50 1
    32   18   19 ar
    33   18   22 1
    34   19   20 ar
    35   19   51 1
    36   20   21 ar
    37   21   52 1
    38   22   27 ar
    39   22   23 ar
    40   23   24 ar
    41   23   53 1
    42   24   25 ar
    43   24   54 1
    44   25   30 2
    45   25   26 ar
    46   26   27 ar
    47   26   28 2
    48   27   55 1
    49   28   29 1
    50   29   30 1
    51   31   32 1
    52   31   56 1
    53   32   37 ar
    54   32   33 ar
    55   33   34 ar
    56   33   57 1
    57   34   35 ar
    58   34   58 1
    59   35   40 2
    60   35   36 ar
    61   36   37 ar
    62   36   38 2
    63   37   59 1
    64   38   39 1
    65   39   40 1
@<TRIPOS>MOLECULE
CHEMBL252054
   58    62     0     0     0
SMALL
USER_CHARGES

@<TRIPOS>ATOM
      1 C1         -0.0225    1.8097    0.0120 C.3       1 <0>        -0.1490
      2 S1          0.0021   -0.0041    0.0020 S.3       1 <0>         0.0303
      3 C2          0.8767   -0.4266    1.4721 C.ar      1 <0>         0.3271
      4 N1          1.3174    0.5551    2.2576 N.ar      1 <0>        -0.5278
      5 C3          1.9766    0.3014    3.3689 C.ar      1 <0>         0.2400
      6 C4          2.2114   -1.0411    3.7185 C.ar      1 <0>        -0.2286
      7 C5          2.9053   -1.3920    4.8864 C.ar      1 <0>         0.0087
      8 C6          3.0909   -2.7406    5.1528 C.ar      1 <0>        -0.1088
      9 C7          2.5820   -3.7021    4.2518 C.ar      1 <0>         0.2468
     10 N2          1.9327   -3.3451    3.1593 N.ar      1 <0>        -0.4556
     11 C8          1.7278   -2.0628    2.8584 C.ar      1 <0>         0.3663
     12 N3          1.0636   -1.7028    1.7525 N.ar      1 <0>        -0.4843
     13 C9          2.7816   -5.1415    4.5386 C.ar      1 <0>        -0.0195
     14 C10         3.9528   -5.5760    5.1591 C.ar      1 <0>        -0.0776
     15 C11         4.1327   -6.9181    5.4241 C.ar      1 <0>        -0.0966
     16 C12         3.1545   -7.8322    5.0753 C.ar      1 <0>        -0.1509
     17 C13         1.9909   -7.4074    4.4592 C.ar      1 <0>        -0.0963
     18 C14         1.7967   -6.0672    4.1946 C.ar      1 <0>        -0.0701
     19 C15         3.3576   -9.2966    5.3671 C.3       1 <0>         0.0459
     20 N4          2.8280   -9.6080    6.7015 N.4       1 <0>        -0.5090
     21 C16         3.0259  -11.0356    6.9860 C.3       1 <0>        -0.0031
     22 C17         2.4742  -11.3599    8.3757 C.3       1 <0>        -0.0501
     23 C18         2.6773  -12.8244    8.6675 C.2       1 <0>        -0.0266
     24 C19         3.3073  -13.3373    9.7416 C.2       1 <0>        -0.0280
     25 N5          3.2649  -14.6994    9.6126 N.pl3     1 <0>        -0.5634
     26 H1          3.6359  -15.3479   10.2311 H         1 <0>         0.4298
     27 C20         2.6100  -14.9715    8.4633 C.2       1 <0>         0.2049
     28 N6          2.2572  -13.8455    7.9060 N.2       1 <0>        -0.4930
     29 C21         3.8172   -3.1690    6.3720 C.ar      1 <0>        -0.0505
     30 C22         3.2649   -4.1343    7.2126 C.ar      1 <0>        -0.0992
     31 C23         3.9459   -4.5295    8.3460 C.ar      1 <0>        -0.1200
     32 C24         5.1740   -3.9694    8.6488 C.ar      1 <0>        -0.1091
     33 C25         5.7270   -3.0112    7.8184 C.ar      1 <0>        -0.1118
     34 C26         5.0579   -2.6123    6.6792 C.ar      1 <0>        -0.1034
     35 H2          1.0001    2.1870    0.0043 H         1 <0>         0.0933
     36 H3         -0.5497    2.1708   -0.8711 H         1 <0>         0.1177
     37 H4         -0.5327    2.1613    0.9088 H         1 <0>         0.0934
     38 H5          2.3293    1.1056    3.9977 H         1 <0>         0.1880
     39 H6          3.2838   -0.6351    5.5574 H         1 <0>         0.1577
     40 H7          4.7174   -4.8634    5.4312 H         1 <0>         0.1440
     41 H8          5.0391   -7.2558    5.9044 H         1 <0>         0.1361
     42 H9          1.2311   -8.1257    4.1890 H         1 <0>         0.1378
     43 H10         0.8860   -5.7362    3.7177 H         1 <0>         0.1437
     44 H11         2.8331   -9.8921    4.6199 H         1 <0>         0.1403
     45 H12         4.4220   -9.5292    5.3353 H         1 <0>         0.1387
     46 H13         3.3135   -9.0567    7.3931 H         1 <0>         0.4257
     47 H14         2.5014  -11.6311    6.2388 H         1 <0>         0.1395
     48 H15         4.0903  -11.2682    6.9542 H         1 <0>         0.1309
     49 H16         2.9988  -10.7644    9.1229 H         1 <0>         0.0963
     50 H17         1.4098  -11.1273    8.4075 H         1 <0>         0.0962
     51 H18         3.7593  -12.7809   10.5494 H         1 <0>         0.1805
     52 H19         2.4081  -15.9578    8.0723 H         1 <0>         0.2150
     53 H20         2.3059   -4.5717    6.9776 H         1 <0>         0.1209
     54 H21         3.5191   -5.2772    8.9980 H         1 <0>         0.1237
     55 H22         5.7030   -4.2813    9.5372 H         1 <0>         0.1266
     56 H23         6.6860   -2.5771    8.0600 H         1 <0>         0.1303
     57 H24         5.4926   -1.8673    6.0293 H         1 <0>         0.1282
     58 H25         1.8426   -9.3927    6.7309 H         1 <0>         0.4281
@<TRIPOS>BOND
     1    1    2 1
     2    1   35 1
     3    1   36 1
     4    1   37 1
     5    2    3 1
     6    3   12 ar
     7    3    4 ar
     8    4    5 ar
     9    5    6 ar
    10    5   38 1
    11    6   11 ar
    12    6    7 ar
    13    7    8 ar
    14    7   39 1
    15    8    9 ar
    16    8   29 1
    17    9   10 ar
    18    9   13 1
    19   10   11 ar
    20   11   12 ar
    21   13   18 ar
    22   13   14 ar
    23   14   15 ar
    24   14   40 1
    25   15   16 ar
    26   15   41 1
    27   16   17 ar
    28   16   19 1
    29   17   18 ar
    30   17   42 1
    31   18   43 1
    32   19   20 1
    33   19   44 1
    34   19   45 1
    35   20   21 1
    36   20   46 1
    37   20   58 1
    38   21   22 1
    39   21   47 1
    40   21   48 1
    41   22   23 1
    42   22   49 1
    43   22   50 1
    44   23   28 1
    45   23   24 2
    46   24   25 1
    47   24   51 1
    48   25   26 1
    49   25   27 1
    50   27   28 2
    51   27   52 1
    52   29   34 ar
    53   29   30 ar
    54   30   31 ar
    55   30   53 1
    56   31   32 ar
    57   31   54 1
    58   32   33 ar
    59   32   55 1
    60   33   34 ar
    61   33   56 1
    62   34   57 1
@<TRIPOS>MOLECULE
CHEMBL252054
   58    62     0     0     0
SMALL
USER_CHARGES

@<TRIPOS>ATOM
      1 C1         -0.0225    1.8097    0.0120 C.3       1 <0>        -0.1490
      2 S1          0.0021   -0.0041    0.0020 S.3       1 <0>         0.0307
      3 C2          0.8484   -0.4107   -1.4889 C.ar      1 <0>         0.3272
      4 N1          1.2837    0.5796   -2.2667 N.ar      1 <0>        -0.5274
      5 C3          1.9229    0.3379   -3.3923 C.ar      1 <0>         0.2403
      6 C4          2.1419   -1.0009   -3.7658 C.ar      1 <0>        -0.2284
      7 C5          2.8151   -1.3392   -4.9495 C.ar      1 <0>         0.0092
      8 C6          2.9869   -2.6849   -5.2387 C.ar      1 <0>        -0.1088
      9 C7          2.4852   -3.6562   -4.3441 C.ar      1 <0>         0.2455
     10 N2          1.8548   -3.3109   -3.2368 N.ar      1 <0>        -0.4556
     11 C8          1.6645   -2.0319   -2.9134 C.ar      1 <0>         0.3662
     12 N3          1.0298   -1.6838   -1.7865 N.ar      1 <0>        -0.4847
     13 C9          2.6699   -5.0924   -4.6553 C.ar      1 <0>        -0.0171
     14 C10         2.6327   -5.5326   -5.9783 C.ar      1 <0>        -0.0769
     15 C11         2.8060   -6.8718   -6.2619 C.ar      1 <0>        -0.0955
     16 C12         3.0157   -7.7773   -5.2372 C.ar      1 <0>        -0.1533
     17 C13         3.0532   -7.3469   -3.9229 C.ar      1 <0>        -0.0968
     18 C14         2.8875   -6.0093   -3.6271 C.ar      1 <0>        -0.0706
     19 C15         3.2037   -9.2386   -5.5539 C.3       1 <0>         0.0457
     20 N4          4.6315   -9.5150   -5.7612 N.4       1 <0>        -0.5089
     21 C16         4.8147  -10.9395   -6.0698 C.3       1 <0>        -0.0082
     22 C17         6.3018  -11.2273   -6.2858 C.3       1 <0>        -0.0607
     23 C18         6.4898  -12.6887   -6.6024 C.2       1 <0>        -0.0628
     24 C19         6.3862  -13.2673   -7.8140 C.2       1 <0>         0.0086
     25 N5          6.6261  -14.5790   -7.6693 N.2       1 <0>        -0.4899
     26 H1          6.9478  -13.5775   -4.7611 H         1 <0>         0.4225
     27 C20         6.8744  -14.8352   -6.4140 C.2       1 <0>         0.2152
     28 N6          6.8045  -13.6820   -5.7148 N.pl3     1 <0>        -0.5660
     29 C21         3.6902   -3.1001   -6.4757 C.ar      1 <0>        -0.0510
     30 C22         4.7183   -4.0397   -6.4143 C.ar      1 <0>        -0.1001
     31 C23         5.3692   -4.4227   -7.5693 C.ar      1 <0>        -0.1202
     32 C24         5.0036   -3.8759   -8.7863 C.ar      1 <0>        -0.1086
     33 C25         3.9842   -2.9431   -8.8533 C.ar      1 <0>        -0.1113
     34 C26         3.3223   -2.5567   -7.7057 C.ar      1 <0>        -0.1031
     35 H2          1.0001    2.1870    0.0043 H         1 <0>         0.0935
     36 H3         -0.5497    2.1708   -0.8711 H         1 <0>         0.0935
     37 H4         -0.5327    2.1613    0.9088 H         1 <0>         0.1180
     38 H5          2.2708    1.1489   -4.0150 H         1 <0>         0.1883
     39 H6          3.1879   -0.5750   -5.6154 H         1 <0>         0.1580
     40 H7          2.4684   -4.8268   -6.7790 H         1 <0>         0.1449
     41 H8          2.7774   -7.2139   -7.2859 H         1 <0>         0.1371
     42 H9          3.2169   -8.0585   -3.1272 H         1 <0>         0.1365
     43 H10         2.9213   -5.6738   -2.6011 H         1 <0>         0.1438
     44 H11         2.8338   -9.8407   -4.7239 H         1 <0>         0.1392
     45 H12         2.6501   -9.4884   -6.4590 H         1 <0>         0.1409
     46 H13         4.9739   -8.9577   -6.5294 H         1 <0>         0.4290
     47 H14         4.4449  -11.5416   -5.2399 H         1 <0>         0.1309
     48 H15         4.2612  -11.1892   -6.9750 H         1 <0>         0.1393
     49 H16         6.6717  -10.6252   -7.1157 H         1 <0>         0.1103
     50 H17         6.8554  -10.9776   -5.3806 H         1 <0>         0.0933
     51 H18         6.1512  -12.7635   -8.7400 H         1 <0>         0.1734
     52 H19         7.1015  -15.8078   -6.0031 H         1 <0>         0.2166
     53 H20         5.0050   -4.4667   -5.4647 H         1 <0>         0.1203
     54 H21         6.1658   -5.1505   -7.5230 H         1 <0>         0.1235
     55 H22         5.5163   -4.1781   -9.6875 H         1 <0>         0.1272
     56 H23         3.7033   -2.5193   -9.8062 H         1 <0>         0.1308
     57 H24         2.5236   -1.8318   -7.7599 H         1 <0>         0.1285
     58 H25         5.1440   -9.2838   -4.9233 H         1 <0>         0.4273
@<TRIPOS>BOND
     1    1    2 1
     2    1   35 1
     3    1   36 1
     4    1   37 1
     5    2    3 1
     6    3   12 ar
     7    3    4 ar
     8    4    5 ar
     9    5    6 ar
    10    5   38 1
    11    6   11 ar
    12    6    7 ar
    13    7    8 ar
    14    7   39 1
    15    8    9 ar
    16    8   29 1
    17    9   10 ar
    18    9   13 1
    19   10   11 ar
    20   11   12 ar
    21   13   18 ar
    22   13   14 ar
    23   14   15 ar
    24   14   40 1
    25   15   16 ar
    26   15   41 1
    27   16   17 ar
    28   16   19 1
    29   17   18 ar
    30   17   42 1
    31   18   43 1
    32   19   20 1
    33   19   44 1
    34   19   45 1
    35   20   21 1
    36   20   46 1
    37   20   58 1
    38   21   22 1
    39   21   47 1
    40   21   48 1
    41   22   49 1
    42   22   50 1
    43   22   23 1
    44   23   24 2
    45   23   28 1
    46   24   25 1
    47   24   51 1
    48   25   27 2
    49   26   28 1
    50   27   52 1
    51   27   28 1
    52   29   34 ar
    53   29   30 ar
    54   30   31 ar
    55   30   53 1
    56   31   32 ar
    57   31   54 1
    58   32   33 ar
    59   32   55 1
    60   33   34 ar
    61   33   56 1
    62   34   57 1
@<TRIPOS>MOLECULE
CHEMBL252054
   58    62     0     0     0
SMALL
USER_CHARGES

@<TRIPOS>ATOM
      1 C1         -0.0225    1.8097    0.0120 C.3       1 <0>        -0.1474
      2 S1          0.0021   -0.0041    0.0020 S.3       1 <0>         0.0230
      3 C2          0.8767   -0.4266    1.4721 C.ar      1 <0>         0.3247
      4 N1          1.3174    0.5551    2.2576 N.ar      1 <0>        -0.5318
      5 C3          1.9766    0.3014    3.3689 C.ar      1 <0>         0.2377
      6 C4          2.2114   -1.0411    3.7185 C.ar      1 <0>        -0.2317
      7 C5          2.9053   -1.3920    4.8864 C.ar      1 <0>         0.0028
      8 C6          3.0909   -2.7406    5.1528 C.ar      1 <0>        -0.1072
      9 C7          2.5820   -3.7021    4.2518 C.ar      1 <0>         0.2635
     10 N2          1.9327   -3.3451    3.1593 N.ar      1 <0>        -0.4614
     11 C8          1.7278   -2.0628    2.8584 C.ar      1 <0>         0.3664
     12 N3          1.0636   -1.7028    1.7525 N.ar      1 <0>        -0.4837
     13 C9          2.7816   -5.1415    4.5386 C.ar      1 <0>        -0.0576
     14 C10         3.9528   -5.5760    5.1591 C.ar      1 <0>        -0.0766
     15 C11         4.1327   -6.9181    5.4241 C.ar      1 <0>        -0.1184
     16 C12         3.1545   -7.8322    5.0753 C.ar      1 <0>        -0.0729
     17 C13         1.9909   -7.4074    4.4592 C.ar      1 <0>        -0.1026
     18 C14         1.7967   -6.0672    4.1946 C.ar      1 <0>        -0.0682
     19 C15         3.3576   -9.2966    5.3671 C.3       1 <0>         0.0999
     20 N4          2.8280   -9.6080    6.7015 N.3       1 <0>        -0.6818
     21 C16         3.0090  -11.0304    7.0209 C.3       1 <0>         0.0590
     22 C17         2.4465  -11.3156    8.4149 C.3       1 <0>        -0.0637
     23 C18         2.6322  -12.7748    8.7426 C.2       1 <0>         0.0354
     24 C19         1.8049  -13.7768    8.3890 C.2       1 <0>         0.0365
     25 N5          2.3462  -14.9315    8.8863 N.pl3     1 <0>        -0.5088
     26 H1          1.9794  -15.8249    8.7955 H         1 <0>         0.4682
     27 C20         3.4862  -14.5946    9.5271 C.cat     1 <0>         0.3051
     28 N6          3.6534  -13.3038    9.4327 N.pl3     1 <0>        -0.4755
     29 C21         3.8172   -3.1690    6.3720 C.ar      1 <0>        -0.0484
     30 C22         3.2649   -4.1343    7.2126 C.ar      1 <0>        -0.0897
     31 C23         3.9459   -4.5295    8.3460 C.ar      1 <0>        -0.1174
     32 C24         5.1740   -3.9694    8.6488 C.ar      1 <0>        -0.1117
     33 C25         5.7270   -3.0112    7.8184 C.ar      1 <0>        -0.1163
     34 C26         5.0579   -2.6123    6.6792 C.ar      1 <0>        -0.1059
     35 H2          1.0001    2.1870    0.0043 H         1 <0>         0.0921
     36 H3         -0.5497    2.1708   -0.8711 H         1 <0>         0.1159
     37 H4         -0.5327    2.1613    0.9088 H         1 <0>         0.0922
     38 H5          2.3293    1.1056    3.9977 H         1 <0>         0.1857
     39 H6          3.2838   -0.6351    5.5574 H         1 <0>         0.1553
     40 H7          4.7174   -4.8634    5.4312 H         1 <0>         0.1333
     41 H8          5.0391   -7.2558    5.9044 H         1 <0>         0.1223
     42 H9          1.2311   -8.1257    4.1890 H         1 <0>         0.1288
     43 H10         0.8860   -5.7362    3.7177 H         1 <0>         0.1336
     44 H11         2.8331   -9.8921    4.6199 H         1 <0>         0.0866
     45 H12         4.4220   -9.5292    5.3353 H         1 <0>         0.0443
     46 H13         3.2528   -9.0225    7.4048 H         1 <0>         0.3474
     47 H14         2.4820  -11.6379    6.2852 H         1 <0>         0.0846
     48 H15         4.0710  -11.2750    7.0006 H         1 <0>         0.0340
     49 H16         2.9734  -10.7080    9.1506 H         1 <0>         0.0955
     50 H17         1.3845  -11.0710    8.4352 H         1 <0>         0.1229
     51 H18         0.8900  -13.6866    7.8222 H         1 <0>         0.2278
     52 H19         4.1514  -15.2804   10.0306 H         1 <0>         0.2663
     53 H20         2.3059   -4.5717    6.9776 H         1 <0>         0.1234
     54 H21         3.5191   -5.2772    8.9980 H         1 <0>         0.1236
     55 H22         5.7030   -4.2813    9.5372 H         1 <0>         0.1235
     56 H23         6.6860   -2.5771    8.0600 H         1 <0>         0.1273
     57 H24         5.4926   -1.8673    6.0293 H         1 <0>         0.1260
     58 H25         4.3978  -12.8054    9.8046 H         1 <0>         0.4642
@<TRIPOS>BOND
     1    1    2 1
     2    1   35 1
     3    1   36 1
     4    1   37 1
     5    2    3 1
     6    3   12 ar
     7    3    4 ar
     8    4    5 ar
     9    5    6 ar
    10    5   38 1
    11    6   11 ar
    12    6    7 ar
    13    7    8 ar
    14    7   39 1
    15    8    9 ar
    16    8   29 1
    17    9   10 ar
    18    9   13 1
    19   10   11 ar
    20   11   12 ar
    21   13   18 ar
    22   13   14 ar
    23   14   15 ar
    24   14   40 1
    25   15   16 ar
    26   15   41 1
    27   16   17 ar
    28   16   19 1
    29   17   18 ar
    30   17   42 1
    31   18   43 1
    32   19   20 1
    33   19   44 1
    34   19   45 1
    35   20   21 1
    36   20   46 1
    37   21   22 1
    38   21   47 1
    39   21   48 1
    40   22   23 1
    41   22   49 1
    42   22   50 1
    43   23   28 1
    44   23   24 2
    45   24   25 1
    46   24   51 1
    47   25   26 1
    48   25   27 1
    49   27   28 2
    50   27   52 1
    51   28   58 1
    52   29   34 ar
    53   29   30 ar
    54   30   31 ar
    55   30   53 1
    56   31   32 ar
    57   31   54 1
    58   32   33 ar
    59   32   55 1
    60   33   34 ar
    61   33   56 1
    62   34   57 1
@<TRIPOS>MOLECULE
CHEMBL251860
   72    76     0     0     0
SMALL
USER_CHARGES

@<TRIPOS>ATOM
      1 C1         -0.0178    1.4648    0.0101 C.3       1 <0>        -0.0476
      2 N1          0.0021   -0.0041    0.0020 N.4       1 <0>        -0.3889
      3 C2         -1.3761   -0.5122    0.0107 C.3       1 <0>        -0.0042
      4 C3         -1.3560   -2.0421   -0.0167 C.3       1 <0>         0.0261
      5 N2         -0.6244   -2.5407    1.1564 N.3       1 <0>        -0.5399
      6 C4          0.7499   -2.0201    1.1745 C.3       1 <0>         0.0192
      7 C5          0.7125   -0.4904    1.1921 C.3       1 <0>        -0.0040
      8 C6         -0.6316   -4.0091    1.1963 C.3       1 <0>         0.0565
      9 C7         -0.0856   -4.4853    2.5439 C.3       1 <0>        -0.1511
     10 C8         -0.0931   -6.0148    2.5855 C.3       1 <0>        -0.0099
     11 N3          0.4311   -6.4720    3.8794 N.4       1 <0>        -0.5085
     12 C9          0.4239   -7.9404    3.9193 C.3       1 <0>         0.0467
     13 C10         0.9617   -8.4095    5.2466 C.ar      1 <0>        -0.1588
     14 C11         2.3179   -8.6363    5.3991 C.ar      1 <0>        -0.0969
     15 C12         2.8164   -9.0654    6.6120 C.ar      1 <0>        -0.0708
     16 C13         1.9500   -9.2705    7.6856 C.ar      1 <0>        -0.0111
     17 C14         0.5838   -9.0401    7.5257 C.ar      1 <0>        -0.0765
     18 C15         0.0980   -8.6061    6.3093 C.ar      1 <0>        -0.0953
     19 C16         2.4787   -9.7315    8.9902 C.ar      1 <0>         0.2415
     20 C17         1.8778   -9.2690   10.1820 C.ar      1 <0>        -0.1127
     21 C18         2.3707   -9.6997   11.4049 C.ar      1 <0>         0.0120
     22 C19         3.4580  -10.5867   11.4010 C.ar      1 <0>        -0.2287
     23 C20         4.0220  -11.0754   12.5938 C.ar      1 <0>         0.2412
     24 N4          5.0411  -11.9054   12.5129 N.ar      1 <0>        -0.5257
     25 C21         5.5373  -12.2828   11.3354 C.ar      1 <0>         0.3286
     26 N5          5.0489  -11.8563   10.1857 N.ar      1 <0>        -0.4858
     27 C22         4.0115  -11.0095   10.1632 C.ar      1 <0>         0.3670
     28 N6          3.4979  -10.5701    9.0143 N.ar      1 <0>        -0.4548
     29 S1          6.9024  -13.3966   11.3120 S.3       1 <0>         0.0341
     30 C23         7.2401  -13.7137   13.0659 C.3       1 <0>        -0.1497
     31 C24         0.7311   -8.3314   10.1262 C.ar      1 <0>        -0.0485
     32 C25         0.8031   -7.1838    9.3378 C.ar      1 <0>        -0.1018
     33 C26        -0.2678   -6.3148    9.2895 C.ar      1 <0>        -0.1217
     34 C27        -1.4110   -6.5803   10.0217 C.ar      1 <0>        -0.1101
     35 C28        -1.4881   -7.7172   10.8061 C.ar      1 <0>        -0.1097
     36 C29        -0.4259   -8.5966   10.8574 C.ar      1 <0>        -0.1021
     37 H1          1.0047    1.8421    0.0024 H         1 <0>         0.1269
     38 H2         -0.5450    1.8259   -0.8730 H         1 <0>         0.1279
     39 H3         -0.5280    1.8163    0.9069 H         1 <0>         0.1248
     40 H4         -1.8832   -0.1716    0.9134 H         1 <0>         0.1395
     41 H5         -1.9060   -0.1400   -0.8661 H         1 <0>         0.1409
     42 H6         -2.3783   -2.4196    0.0047 H         1 <0>         0.1274
     43 H7         -0.8610   -2.3831   -0.9260 H         1 <0>         0.0660
     44 H8          1.2641   -2.3816    2.0650 H         1 <0>         0.1208
     45 H9          1.2796   -2.3607    0.2848 H         1 <0>         0.0651
     46 H10         1.7310   -0.1020    1.1912 H         1 <0>         0.1387
     47 H11         0.1947   -0.1499    2.0888 H         1 <0>         0.1386
     48 H12        -1.6519   -4.3710    1.0694 H         1 <0>         0.1002
     49 H13        -0.0057   -4.3975    0.3929 H         1 <0>         0.0584
     50 H14         0.9347   -4.1235    2.6709 H         1 <0>         0.0875
     51 H15        -0.7115   -4.0969    3.3473 H         1 <0>         0.1017
     52 H16        -1.1134   -6.3766    2.4585 H         1 <0>         0.1369
     53 H17         0.5328   -6.4032    1.7821 H         1 <0>         0.1338
     54 H18         1.3756   -6.1370    3.9969 H         1 <0>         0.4276
     55 H19        -0.5964   -8.3023    3.7923 H         1 <0>         0.1408
     56 H20         1.0498   -8.3289    3.1159 H         1 <0>         0.1402
     57 H21         2.9877   -8.4775    4.5669 H         1 <0>         0.1357
     58 H22         3.8753   -9.2425    6.7297 H         1 <0>         0.1448
     59 H23        -0.0920   -9.1974    8.3533 H         1 <0>         0.1456
     60 H24        -0.9592   -8.4230    6.1855 H         1 <0>         0.1359
     61 H25         1.9313   -9.3622   12.3320 H         1 <0>         0.1585
     62 H26         3.6284  -10.7762   13.5540 H         1 <0>         0.1891
     63 H27         8.0806  -14.4020   13.1554 H         1 <0>         0.1192
     64 H28         7.4841  -12.7756   13.5643 H         1 <0>         0.0941
     65 H29         6.3586  -14.1542   13.5318 H         1 <0>         0.0944
     66 H30         1.6955   -6.9752    8.7663 H         1 <0>         0.1193
     67 H31        -0.2131   -5.4255    8.6791 H         1 <0>         0.1209
     68 H32        -2.2465   -5.8972    9.9810 H         1 <0>         0.1263
     69 H33        -2.3829   -7.9190   11.3761 H         1 <0>         0.1317
     70 H34        -0.4889   -9.4862   11.4667 H         1 <0>         0.1298
     71 H35        -0.1483   -6.1124    4.6231 H         1 <0>         0.4292
     72 H36         0.4748   -0.3293   -0.8280 H         1 <0>         0.4240
@<TRIPOS>BOND
     1    1    2 1
     2    1   37 1
     3    1   38 1
     4    1   39 1
     5    2    7 1
     6    2    3 1
     7    2   72 1
     8    3    4 1
     9    3   40 1
    10    3   41 1
    11    4    5 1
    12    4   42 1
    13    4   43 1
    14    5    6 1
    15    5    8 1
    16    6    7 1
    17    6   44 1
    18    6   45 1
    19    7   46 1
    20    7   47 1
    21    8    9 1
    22    8   48 1
    23    8   49 1
    24    9   10 1
    25    9   50 1
    26    9   51 1
    27   10   11 1
    28   10   52 1
    29   10   53 1
    30   11   12 1
    31   11   54 1
    32   11   71 1
    33   12   13 1
    34   12   55 1
    35   12   56 1
    36   13   18 ar
    37   13   14 ar
    38   14   15 ar
    39   14   57 1
    40   15   16 ar
    41   15   58 1
    42   16   17 ar
    43   16   19 1
    44   17   18 ar
    45   17   59 1
    46   18   60 1
    47   19   28 ar
    48   19   20 ar
    49   20   21 ar
    50   20   31 1
    51   21   22 ar
    52   21   61 1
    53   22   27 ar
    54   22   23 ar
    55   23   24 ar
    56   23   62 1
    57   24   25 ar
    58   25   26 ar
    59   25   29 1
    60   26   27 ar
    61   27   28 ar
    62   29   30 1
    63   30   63 1
    64   30   64 1
    65   30   65 1
    66   31   36 ar
    67   31   32 ar
    68   32   33 ar
    69   32   66 1
    70   33   34 ar
    71   33   67 1
    72   34   35 ar
    73   34   68 1
    74   35   36 ar
    75   35   69 1
    76   36   70 1
@<TRIPOS>MOLECULE
CHEMBL251860
   72    76     0     0     0
SMALL
USER_CHARGES

@<TRIPOS>ATOM
      1 C1         -0.0178    1.4648    0.0101 C.3       1 <0>         0.0174
      2 N1          0.0021   -0.0041    0.0020 N.3       1 <0>        -0.5428
      3 C2         -1.3607   -0.5489   -0.0764 C.3       1 <0>         0.0217
      4 C3         -1.2932   -2.0762   -0.1426 C.3       1 <0>        -0.0020
      5 N2         -0.6107   -2.5886    1.0529 N.4       1 <0>        -0.3872
      6 C4          0.7570   -2.0553    1.1043 C.3       1 <0>        -0.0077
      7 C5          0.7065   -0.5278    1.1808 C.3       1 <0>         0.0223
      8 C6         -0.5621   -4.0557    0.9977 C.3       1 <0>        -0.0041
      9 C7          0.0360   -4.5955    2.2984 C.3       1 <0>        -0.1850
     10 C8          0.0866   -6.1236    2.2409 C.3       1 <0>        -0.0050
     11 N3          0.6609   -6.6418    3.4897 N.4       1 <0>        -0.5099
     12 C9          0.7095   -8.1090    3.4345 C.3       1 <0>         0.0476
     13 C10         1.2986   -8.6407    4.7156 C.ar      1 <0>        -0.1638
     14 C11         2.6658   -8.8239    4.8212 C.ar      1 <0>        -0.0954
     15 C12         3.2113   -9.3099    5.9917 C.ar      1 <0>        -0.0710
     16 C13         2.3812   -9.6167    7.0698 C.ar      1 <0>        -0.0065
     17 C14         1.0036   -9.4298    6.9572 C.ar      1 <0>        -0.0767
     18 C15         0.4706   -8.9382    5.7833 C.ar      1 <0>        -0.0947
     19 C16         2.9603  -10.1392    8.3290 C.ar      1 <0>         0.2390
     20 C17         2.3736   -9.7776    9.5620 C.ar      1 <0>        -0.1143
     21 C18         2.9138  -10.2660   10.7426 C.ar      1 <0>         0.0133
     22 C19         4.0329  -11.1080   10.6557 C.ar      1 <0>        -0.2286
     23 C20         4.6454  -11.6496   11.8007 C.ar      1 <0>         0.2417
     24 N4          5.6923  -12.4325   11.6422 N.ar      1 <0>        -0.5250
     25 C21         6.1716  -12.7143   10.4315 C.ar      1 <0>         0.3292
     26 N5          5.6380  -12.2346    9.3236 N.ar      1 <0>        -0.4861
     27 C22         4.5696  -11.4290    9.3804 C.ar      1 <0>         0.3674
     28 N6          4.0103  -10.9374    8.2748 N.ar      1 <0>        -0.4541
     29 S1          7.5762  -13.7704   10.3039 S.3       1 <0>         0.0360
     30 C23         7.9709  -14.1856   12.0251 C.3       1 <0>        -0.1501
     31 C24         1.1916   -8.8836    9.5940 C.ar      1 <0>        -0.0475
     32 C25         1.2004   -7.6861    8.8803 C.ar      1 <0>        -0.1027
     33 C26         0.0969   -6.8581    8.9135 C.ar      1 <0>        -0.1225
     34 C27        -1.0163   -7.2141    9.6535 C.ar      1 <0>        -0.1107
     35 C28        -1.0306   -8.4009   10.3641 C.ar      1 <0>        -0.1090
     36 C29         0.0647   -9.2399   10.3334 C.ar      1 <0>        -0.1016
     37 H1          1.0047    1.8421    0.0024 H         1 <0>         0.0874
     38 H2         -0.5450    1.8259   -0.8730 H         1 <0>         0.0879
     39 H3         -0.5280    1.8163    0.9069 H         1 <0>         0.0422
     40 H4         -1.9242   -0.2477    0.8067 H         1 <0>         0.0628
     41 H5         -1.8539   -0.1676   -0.9705 H         1 <0>         0.1293
     42 H6         -2.3035   -2.4830   -0.1865 H         1 <0>         0.1400
     43 H7         -0.7413   -2.3773   -1.0330 H         1 <0>         0.1421
     44 H8          1.2666   -2.4465    1.9848 H         1 <0>         0.1319
     45 H9          1.2983   -2.3564    0.2075 H         1 <0>         0.1423
     46 H10         1.7215   -0.1310    1.2040 H         1 <0>         0.1270
     47 H11         0.1771   -0.2262    2.0846 H         1 <0>         0.0617
     48 H12        -1.5711   -4.4482    0.8715 H         1 <0>         0.1431
     49 H13         0.0569   -4.3674    0.1563 H         1 <0>         0.1428
     50 H14         1.0451   -4.2031    2.4246 H         1 <0>         0.1110
     51 H15        -0.5829   -4.2839    3.1397 H         1 <0>         0.1111
     52 H16        -0.9224   -6.5160    2.1146 H         1 <0>         0.1442
     53 H17         0.7056   -6.4352    1.3995 H         1 <0>         0.1444
     54 H18         1.5950   -6.2786    3.6065 H         1 <0>         0.4306
     55 H19        -0.2995   -8.5014    3.3082 H         1 <0>         0.1425
     56 H20         1.3284   -8.4206    2.5931 H         1 <0>         0.1429
     57 H21         3.3075   -8.5863    3.9856 H         1 <0>         0.1363
     58 H22         4.2787   -9.4528    6.0729 H         1 <0>         0.1459
     59 H23         0.3558   -9.6659    7.7885 H         1 <0>         0.1463
     60 H24        -0.5955   -8.7889    5.6964 H         1 <0>         0.1354
     61 H25         2.4861  -10.0059   11.6996 H         1 <0>         0.1587
     62 H26         4.2659  -11.4280   12.7872 H         1 <0>         0.1894
     63 H27         8.8385  -14.8450   12.0501 H         1 <0>         0.1197
     64 H28         8.1925  -13.2724   12.5775 H         1 <0>         0.0943
     65 H29         7.1188  -14.6889   12.4820 H         1 <0>         0.0946
     66 H30         2.0692   -7.4068    8.3028 H         1 <0>         0.1190
     67 H31         0.1026   -5.9302    8.3610 H         1 <0>         0.1196
     68 H32        -1.8775   -6.5628    9.6769 H         1 <0>         0.1261
     69 H33        -1.9022   -8.6734   10.9407 H         1 <0>         0.1322
     70 H34         0.0507  -10.1683   10.8850 H         1 <0>         0.1304
     71 H35         0.0880   -6.3534    4.2685 H         1 <0>         0.4303
     72 H36        -1.1152   -2.2999    1.8777 H         1 <0>         0.4227
@<TRIPOS>BOND
     1    1    2 1
     2    1   37 1
     3    1   38 1
     4    1   39 1
     5    2    7 1
     6    2    3 1
     7    3    4 1
     8    3   40 1
     9    3   41 1
    10    4    5 1
    11    4   42 1
    12    4   43 1
    13    5    6 1
    14    5    8 1
    15    5   72 1
    16    6    7 1
    17    6   44 1
    18    6   45 1
    19    7   46 1
    20    7   47 1
    21    8    9 1
    22    8   48 1
    23    8   49 1
    24    9   10 1
    25    9   50 1
    26    9   51 1
    27   10   11 1
    28   10   52 1
    29   10   53 1
    30   11   12 1
    31   11   54 1
    32   11   71 1
    33   12   13 1
    34   12   55 1
    35   12   56 1
    36   13   18 ar
    37   13   14 ar
    38   14   15 ar
    39   14   57 1
    40   15   16 ar
    41   15   58 1
    42   16   17 ar
    43   16   19 1
    44   17   18 ar
    45   17   59 1
    46   18   60 1
    47   19   28 ar
    48   19   20 ar
    49   20   21 ar
    50   20   31 1
    51   21   22 ar
    52   21   61 1
    53   22   27 ar
    54   22   23 ar
    55   23   24 ar
    56   23   62 1
    57   24   25 ar
    58   25   26 ar
    59   25   29 1
    60   26   27 ar
    61   27   28 ar
    62   29   30 1
    63   30   63 1
    64   30   64 1
    65   30   65 1
    66   31   36 ar
    67   31   32 ar
    68   32   33 ar
    69   32   66 1
    70   33   34 ar
    71   33   67 1
    72   34   35 ar
    73   34   68 1
    74   35   36 ar
    75   35   69 1
    76   36   70 1
@<TRIPOS>MOLECULE
CHEMBL251860
   71    75     0     0     0
SMALL
USER_CHARGES

@<TRIPOS>ATOM
      1 C1         -0.0178    1.4648    0.0101 C.3       1 <0>         0.0193
      2 N1          0.0021   -0.0041    0.0020 N.3       1 <0>        -0.5439
      3 C2         -1.3607   -0.5489   -0.0764 C.3       1 <0>         0.0239
      4 C3         -1.2932   -2.0762   -0.1426 C.3       1 <0>        -0.0019
      5 N2         -0.6107   -2.5886    1.0529 N.4       1 <0>        -0.3858
      6 C4          0.7570   -2.0553    1.1043 C.3       1 <0>        -0.0064
      7 C5          0.7065   -0.5278    1.1808 C.3       1 <0>         0.0246
      8 C6         -0.5621   -4.0557    0.9977 C.3       1 <0>        -0.0070
      9 C7          0.0360   -4.5955    2.2984 C.3       1 <0>        -0.1480
     10 C8          0.0866   -6.1236    2.2409 C.3       1 <0>         0.0602
     11 N3          0.6609   -6.6418    3.4897 N.3       1 <0>        -0.6827
     12 C9          0.7253   -8.1093    3.4704 C.3       1 <0>         0.0987
     13 C10         1.3183   -8.6032    4.7647 C.ar      1 <0>        -0.0721
     14 C11         2.6873   -8.7691    4.8762 C.ar      1 <0>        -0.1213
     15 C12         3.2363   -9.2205    6.0589 C.ar      1 <0>        -0.0678
     16 C13         2.4081   -9.5098    7.1432 C.ar      1 <0>        -0.0577
     17 C14         1.0288   -9.3406    7.0246 C.ar      1 <0>        -0.0770
     18 C15         0.4922   -8.8835    5.8384 C.ar      1 <0>        -0.1008
     19 C16         2.9911   -9.9953    8.4154 C.ar      1 <0>         0.2633
     20 C17         2.3989   -9.6100    9.6386 C.ar      1 <0>        -0.1064
     21 C18         2.9427  -10.0636   10.8313 C.ar      1 <0>         0.0025
     22 C19         4.0708  -10.8954   10.7662 C.ar      1 <0>        -0.2316
     23 C20         4.6877  -11.4023   11.9247 C.ar      1 <0>         0.2377
     24 N4          5.7430  -12.1776   11.7866 N.ar      1 <0>        -0.5316
     25 C21         6.2270  -12.4836   10.5836 C.ar      1 <0>         0.3247
     26 N5          5.6898  -12.0368    9.4638 N.ar      1 <0>        -0.4839
     27 C22         4.6127  -11.2416    9.4997 C.ar      1 <0>         0.3661
     28 N6          4.0497  -10.7832    8.3818 N.ar      1 <0>        -0.4619
     29 S1          7.6430  -13.5274   10.4834 S.3       1 <0>         0.0228
     30 C23         8.0397  -13.8962   12.2146 C.3       1 <0>        -0.1473
     31 C24         1.2074   -8.7282    9.6475 C.ar      1 <0>        -0.0493
     32 C25         1.2043   -7.5484    8.9047 C.ar      1 <0>        -0.0900
     33 C26         0.0920   -6.7318    8.9165 C.ar      1 <0>        -0.1151
     34 C27        -1.0183   -7.0816    9.6638 C.ar      1 <0>        -0.1109
     35 C28        -1.0209   -8.2507   10.4032 C.ar      1 <0>        -0.1158
     36 C29         0.0833   -9.0784   10.3941 C.ar      1 <0>        -0.1061
     37 H1          1.0047    1.8421    0.0024 H         1 <0>         0.0845
     38 H2         -0.5450    1.8259   -0.8730 H         1 <0>         0.0841
     39 H3         -0.5280    1.8163    0.9069 H         1 <0>         0.0398
     40 H4         -1.9242   -0.2477    0.8067 H         1 <0>         0.0607
     41 H5         -1.8539   -0.1676   -0.9705 H         1 <0>         0.1241
     42 H6         -2.3035   -2.4830   -0.1865 H         1 <0>         0.1364
     43 H7         -0.7413   -2.3773   -1.0330 H         1 <0>         0.1377
     44 H8          1.2666   -2.4465    1.9848 H         1 <0>         0.1365
     45 H9          1.2983   -2.3564    0.2075 H         1 <0>         0.1375
     46 H10         1.7215   -0.1310    1.2040 H         1 <0>         0.1235
     47 H11         0.1771   -0.2262    2.0846 H         1 <0>         0.0607
     48 H12        -1.5711   -4.4482    0.8715 H         1 <0>         0.1334
     49 H13         0.0569   -4.3674    0.1563 H         1 <0>         0.1308
     50 H14         1.0451   -4.2031    2.4246 H         1 <0>         0.0858
     51 H15        -0.5829   -4.2839    3.1397 H         1 <0>         0.0965
     52 H16        -0.9224   -6.5160    2.1146 H         1 <0>         0.0844
     53 H17         0.7056   -6.4352    1.3995 H         1 <0>         0.0419
     54 H18        -0.2793   -8.5155    3.3526 H         1 <0>         0.0864
     55 H19         1.3487   -8.4347    2.6375 H         1 <0>         0.0463
     56 H20         3.3275   -8.5451    4.0358 H         1 <0>         0.1237
     57 H21         4.3051   -9.3500    6.1446 H         1 <0>         0.1328
     58 H22         0.3824   -9.5633    7.8607 H         1 <0>         0.1338
     59 H23        -0.5754   -8.7478    5.7468 H         1 <0>         0.1272
     60 H24         2.5110   -9.7848   11.7812 H         1 <0>         0.1554
     61 H25         4.3044  -11.1608   12.9051 H         1 <0>         0.1857
     62 H26         8.2508  -12.9675   12.7448 H         1 <0>         0.0921
     63 H27         7.1925  -14.3973   12.6827 H         1 <0>         0.0923
     64 H28         8.9143  -14.5454   12.2566 H         1 <0>         0.1159
     65 H29         2.0709   -7.2740    8.3215 H         1 <0>         0.1219
     66 H30         0.0885   -5.8176    8.3415 H         1 <0>         0.1231
     67 H31        -1.8865   -6.4391    9.6703 H         1 <0>         0.1237
     68 H32        -1.8903   -8.5184   10.9853 H         1 <0>         0.1275
     69 H33         0.0786   -9.9932   10.9682 H         1 <0>         0.1259
     70 H34         1.5712   -6.2422    3.6623 H         1 <0>         0.3458
     71 H35        -1.1152   -2.2999    1.8777 H         1 <0>         0.4209
@<TRIPOS>BOND
     1    1    2 1
     2    1   37 1
     3    1   38 1
     4    1   39 1
     5    2    7 1
     6    2    3 1
     7    3    4 1
     8    3   40 1
     9    3   41 1
    10    4    5 1
    11    4   42 1
    12    4   43 1
    13    5    6 1
    14    5    8 1
    15    5   71 1
    16    6    7 1
    17    6   44 1
    18    6   45 1
    19    7   46 1
    20    7   47 1
    21    8    9 1
    22    8   48 1
    23    8   49 1
    24    9   10 1
    25    9   50 1
    26    9   51 1
    27   10   11 1
    28   10   52 1
    29   10   53 1
    30   11   12 1
    31   11   70 1
    32   12   13 1
    33   12   54 1
    34   12   55 1
    35   13   18 ar
    36   13   14 ar
    37   14   15 ar
    38   14   56 1
    39   15   16 ar
    40   15   57 1
    41   16   17 ar
    42   16   19 1
    43   17   18 ar
    44   17   58 1
    45   18   59 1
    46   19   28 ar
    47   19   20 ar
    48   20   21 ar
    49   20   31 1
    50   21   22 ar
    51   21   60 1
    52   22   27 ar
    53   22   23 ar
    54   23   24 ar
    55   23   61 1
    56   24   25 ar
    57   25   26 ar
    58   25   29 1
    59   26   27 ar
    60   27   28 ar
    61   29   30 1
    62   30   62 1
    63   30   63 1
    64   30   64 1
    65   31   36 ar
    66   31   32 ar
    67   32   33 ar
    68   32   65 1
    69   33   34 ar
    70   33   66 1
    71   34   35 ar
    72   34   67 1
    73   35   36 ar
    74   35   68 1
    75   36   69 1
@<TRIPOS>MOLECULE
CHEMBL388310
   73    77     0     0     0
SMALL
USER_CHARGES

@<TRIPOS>ATOM
      1 C1         -0.0184    1.5028    0.0103 C.3       1 <0>        -0.0813
      2 C2          0.0021   -0.0041    0.0020 C.2       1 <0>         0.1094
      3 C3          0.0083   -0.8581   -1.1820 C.ar      1 <0>        -0.1762
      4 C4         -0.0019   -0.6082   -2.5573 C.ar      1 <0>        -0.0068
      5 C5          0.0079   -1.6738   -3.4431 C.ar      1 <0>        -0.1088
      6 C6          0.0279   -2.9891   -2.9631 C.ar      1 <0>        -0.0538
      7 C7          0.0380   -3.2410   -1.6234 C.ar      1 <0>        -0.1370
      8 C8          0.0285   -2.1860   -0.7124 C.ar      1 <0>         0.1447
      9 N1          0.0337   -2.1193    0.6566 N.pl3     1 <0>        -0.5038
     10 H1          0.0468   -2.8812    1.2569 H         1 <0>         0.4447
     11 N2          0.0230   -0.7772    1.0497 N.2       1 <0>        -0.2421
     12 C9         -0.0034   -1.4202   -4.9053 C.ar      1 <0>        -0.0249
     13 C10         0.0004   -2.4846   -5.8096 C.ar      1 <0>        -0.1014
     14 C11        -0.0110   -2.1940   -7.1677 C.ar      1 <0>         0.0676
     15 C12        -0.0257   -0.8671   -7.5756 C.ar      1 <0>         0.0156
     16 N3         -0.0289    0.1132   -6.6940 N.ar      1 <0>        -0.4362
     17 C13        -0.0238   -0.1167   -5.3969 C.ar      1 <0>         0.0826
     18 O1         -0.0074   -3.1961   -8.0859 O.3       1 <0>        -0.3235
     19 C14        -0.0198   -2.8144   -9.4629 C.3       1 <0>         0.0270
     20 C15        -0.0136   -4.0682  -10.3397 C.3       1 <0>         0.0438
     21 H2          0.8359   -4.6958  -10.0703 H         1 <0>         0.1568
     22 C16         0.0989   -3.6615  -11.8104 C.3       1 <0>        -0.0998
     23 C17         0.2286   -4.8962  -12.6646 C.ar      1 <0>        -0.0829
     24 C18         1.4799   -5.4133  -12.9459 C.ar      1 <0>        -0.1368
     25 C19         1.6023   -6.5459  -13.7291 C.ar      1 <0>        -0.0622
     26 C20         0.4740   -7.1637  -14.2333 C.ar      1 <0>        -0.1958
     27 C21        -0.7823   -6.6470  -13.9526 C.ar      1 <0>         0.1407
     28 C22        -0.9027   -5.5137  -13.1612 C.ar      1 <0>        -0.1745
     29 O2         -1.8936   -7.2530  -14.4473 O.3       1 <0>        -0.3123
     30 C23        -1.6942   -8.4187  -15.2494 C.3       1 <0>         0.0552
     31 C24        -3.0494   -8.9571  -15.7125 C.3       1 <0>        -0.1170
     32 C25        -2.8360  -10.2052  -16.5712 C.3       1 <0>        -0.0982
     33 C26        -2.1016   -9.8213  -17.8590 C.3       1 <0>        -0.1510
     34 C27        -1.9620  -11.0587  -18.7483 C.3       1 <0>        -0.0075
     35 N4         -3.2934  -11.5805  -19.0795 N.4       1 <0>        -0.5064
     36 C28        -3.9757  -12.0173  -17.8555 C.3       1 <0>        -0.0076
     37 C29        -4.1929  -10.8168  -16.9319 C.3       1 <0>        -0.1436
     38 N5         -1.2605   -4.8167  -10.1327 N.4       1 <0>        -0.6372
     39 H3          1.0042    1.8801    0.0026 H         1 <0>         0.0883
     40 H4         -0.5455    1.8639   -0.8728 H         1 <0>         0.0843
     41 H5         -0.5286    1.8543    0.9071 H         1 <0>         0.0850
     42 H6         -0.0177    0.4067   -2.9264 H         1 <0>         0.1368
     43 H7          0.0350   -3.8127   -3.6617 H         1 <0>         0.1308
     44 H8          0.0531   -4.2604   -1.2670 H         1 <0>         0.1331
     45 H9          0.0123   -3.5071   -5.4619 H         1 <0>         0.1474
     46 H10        -0.0343   -0.6345   -8.6302 H         1 <0>         0.1558
     47 H11        -0.0314    0.7142   -4.7071 H         1 <0>         0.1678
     48 H12        -0.9167   -2.2306   -9.6700 H         1 <0>         0.0933
     49 H13         0.8631   -2.2138   -9.6814 H         1 <0>         0.1154
     50 H14        -0.7936   -3.1088  -12.1038 H         1 <0>         0.1075
     51 H15         0.9777   -3.0313  -11.9469 H         1 <0>         0.1310
     52 H16         2.3631   -4.9314  -12.5533 H         1 <0>         0.1363
     53 H17         2.5807   -6.9478  -13.9474 H         1 <0>         0.1377
     54 H18         0.5702   -8.0481  -14.8458 H         1 <0>         0.1329
     55 H19        -1.8800   -5.1122  -12.9373 H         1 <0>         0.1325
     56 H20        -1.0888   -8.1624  -16.1188 H         1 <0>         0.0673
     57 H21        -1.1821   -9.1807  -14.6619 H         1 <0>         0.0685
     58 H22        -3.6549   -9.2134  -14.8431 H         1 <0>         0.0874
     59 H23        -3.5616   -8.1950  -16.3000 H         1 <0>         0.0840
     60 H24        -2.2443  -10.9329  -16.0158 H         1 <0>         0.0941
     61 H25        -2.6695   -9.0556  -18.3874 H         1 <0>         0.0935
     62 H26        -1.1120   -9.4365  -17.6128 H         1 <0>         0.1104
     63 H27        -1.4393  -10.7890  -19.6660 H         1 <0>         0.1359
     64 H28        -1.3938  -11.8237  -18.2191 H         1 <0>         0.1314
     65 H29        -3.8359  -10.8562  -19.5256 H         1 <0>         0.4291
     66 H30        -4.9398  -12.4553  -18.1141 H         1 <0>         0.1371
     67 H31        -3.3646  -12.7619  -17.3453 H         1 <0>         0.1317
     68 H32        -4.6980  -11.1435  -16.0230 H         1 <0>         0.1151
     69 H33        -4.8042  -10.0717  -17.4411 H         1 <0>         0.0925
     70 H34        -2.0469   -4.2358  -10.3821 H         1 <0>         0.4331
     71 H35        -1.2564   -5.6436  -10.7110 H         1 <0>         0.4345
     72 H36        -3.1996  -12.3636  -19.7088 H         1 <0>         0.4353
     73 H37        -1.3347   -5.0850   -9.1628 H         1 <0>         0.4437
@<TRIPOS>BOND
     1    1    2 1
     2    1   39 1
     3    1   40 1
     4    1   41 1
     5    2   11 2
     6    2    3 1
     7    3    8 ar
     8    3    4 ar
     9    4    5 ar
    10    4   42 1
    11    5    6 ar
    12    5   12 1
    13    6    7 ar
    14    6   43 1
    15    7    8 ar
    16    7   44 1
    17    8    9 1
    18    9   10 1
    19    9   11 1
    20   12   17 ar
    21   12   13 ar
    22   13   14 ar
    23   13   45 1
    24   14   15 ar
    25   14   18 1
    26   15   16 ar
    27   15   46 1
    28   16   17 ar
    29   17   47 1
    30   18   19 1
    31   19   20 1
    32   19   48 1
    33   19   49 1
    34   20   21 1
    35   20   22 1
    36   20   38 1
    37   22   23 1
    38   22   50 1
    39   22   51 1
    40   23   28 ar
    41   23   24 ar
    42   24   25 ar
    43   24   52 1
    44   25   26 ar
    45   25   53 1
    46   26   27 ar
    47   26   54 1
    48   27   28 ar
    49   27   29 1
    50   28   55 1
    51   29   30 1
    52   30   31 1
    53   30   56 1
    54   30   57 1
    55   31   32 1
    56   31   58 1
    57   31   59 1
    58   32   37 1
    59   32   33 1
    60   32   60 1
    61   33   34 1
    62   33   61 1
    63   33   62 1
    64   34   35 1
    65   34   63 1
    66   34   64 1
    67   35   36 1
    68   35   65 1
    69   35   72 1
    70   36   37 1
    71   36   66 1
    72   36   67 1
    73   37   68 1
    74   37   69 1
    75   38   70 1
    76   38   71 1
    77   38   73 1
@<TRIPOS>MOLECULE
CHEMBL226745
   70    74     0     0     0
SMALL
USER_CHARGES

@<TRIPOS>ATOM
      1 C1         -0.0184    1.5028    0.0103 C.3       1 <0>        -0.0814
      2 C2          0.0021   -0.0041    0.0020 C.2       1 <0>         0.1096
      3 C3          0.0083   -0.8581   -1.1820 C.ar      1 <0>        -0.1762
      4 C4         -0.0019   -0.6082   -2.5573 C.ar      1 <0>        -0.0064
      5 C5          0.0079   -1.6738   -3.4431 C.ar      1 <0>        -0.1094
      6 C6          0.0279   -2.9891   -2.9631 C.ar      1 <0>        -0.0539
      7 C7          0.0380   -3.2410   -1.6234 C.ar      1 <0>        -0.1371
      8 C8          0.0285   -2.1860   -0.7124 C.ar      1 <0>         0.1449
      9 N1          0.0337   -2.1193    0.6566 N.pl3     1 <0>        -0.5037
     10 H1          0.0468   -2.8812    1.2569 H         1 <0>         0.4448
     11 N2          0.0230   -0.7772    1.0497 N.2       1 <0>        -0.2419
     12 C9         -0.0034   -1.4202   -4.9053 C.ar      1 <0>        -0.0245
     13 C10         0.0004   -2.4846   -5.8096 C.ar      1 <0>        -0.1015
     14 C11        -0.0110   -2.1940   -7.1677 C.ar      1 <0>         0.0670
     15 C12        -0.0257   -0.8671   -7.5756 C.ar      1 <0>         0.0157
     16 N3         -0.0289    0.1132   -6.6940 N.ar      1 <0>        -0.4359
     17 C13        -0.0238   -0.1167   -5.3969 C.ar      1 <0>         0.0830
     18 O1         -0.0074   -3.1961   -8.0859 O.3       1 <0>        -0.3238
     19 C14        -0.0198   -2.8144   -9.4629 C.3       1 <0>         0.0268
     20 C15        -0.0136   -4.0682  -10.3397 C.3       1 <0>         0.0439
     21 H2          0.8359   -4.6958  -10.0703 H         1 <0>         0.1571
     22 C16         0.0989   -3.6615  -11.8104 C.3       1 <0>        -0.1001
     23 C17         0.2286   -4.8962  -12.6646 C.ar      1 <0>        -0.0834
     24 C18         1.4799   -5.4133  -12.9459 C.ar      1 <0>        -0.1340
     25 C19         1.6023   -6.5459  -13.7291 C.ar      1 <0>        -0.0611
     26 C20         0.4740   -7.1637  -14.2333 C.ar      1 <0>        -0.1937
     27 C21        -0.7823   -6.6470  -13.9526 C.ar      1 <0>         0.1381
     28 C22        -0.9027   -5.5137  -13.1612 C.ar      1 <0>        -0.1735
     29 O2         -1.8936   -7.2530  -14.4473 O.3       1 <0>        -0.3138
     30 C23        -1.6942   -8.4187  -15.2494 C.3       1 <0>         0.0604
     31 C24        -3.0494   -8.9571  -15.7125 C.3       1 <0>        -0.1006
     32 C25        -3.8489   -9.4428  -14.5000 C.3       1 <0>        -0.1416
     33 C26        -5.1689  -10.0522  -14.9771 C.3       1 <0>        -0.0081
     34 N4         -4.8948  -11.1846  -15.8699 N.4       1 <0>        -0.5070
     35 C27        -4.1911  -10.7144  -17.0691 C.3       1 <0>        -0.0051
     36 C28        -2.8335  -10.1305  -16.6725 C.3       1 <0>        -0.1445
     37 N5         -1.2605   -4.8167  -10.1327 N.4       1 <0>        -0.6370
     38 H3          1.0042    1.8801    0.0026 H         1 <0>         0.0885
     39 H4         -0.5455    1.8639   -0.8728 H         1 <0>         0.0843
     40 H5         -0.5286    1.8543    0.9071 H         1 <0>         0.0851
     41 H6         -0.0177    0.4067   -2.9264 H         1 <0>         0.1369
     42 H7          0.0350   -3.8127   -3.6617 H         1 <0>         0.1305
     43 H8          0.0531   -4.2604   -1.2670 H         1 <0>         0.1331
     44 H9          0.0123   -3.5071   -5.4619 H         1 <0>         0.1472
     45 H10        -0.0343   -0.6345   -8.6302 H         1 <0>         0.1558
     46 H11        -0.0314    0.7142   -4.7071 H         1 <0>         0.1680
     47 H12        -0.9167   -2.2306   -9.6700 H         1 <0>         0.0932
     48 H13         0.8631   -2.2138   -9.6814 H         1 <0>         0.1158
     49 H14        -0.7936   -3.1088  -12.1038 H         1 <0>         0.1075
     50 H15         0.9777   -3.0313  -11.9469 H         1 <0>         0.1317
     51 H16         2.3631   -4.9314  -12.5533 H         1 <0>         0.1372
     52 H17         2.5807   -6.9478  -13.9474 H         1 <0>         0.1392
     53 H18         0.5702   -8.0481  -14.8458 H         1 <0>         0.1346
     54 H19        -1.8800   -5.1122  -12.9373 H         1 <0>         0.1317
     55 H20        -1.0888   -8.1624  -16.1188 H         1 <0>         0.0777
     56 H21        -1.1821   -9.1807  -14.6619 H         1 <0>         0.0724
     57 H22        -3.6010   -8.1666  -16.2213 H         1 <0>         0.1036
     58 H23        -3.2733  -10.1964  -13.9626 H         1 <0>         0.0892
     59 H24        -4.0546   -8.6010  -13.8387 H         1 <0>         0.1151
     60 H25        -5.7407  -10.3989  -14.1163 H         1 <0>         0.1359
     61 H26        -5.7438   -9.2977  -15.5141 H         1 <0>         0.1326
     62 H27        -4.3212  -11.8604  -15.3878 H         1 <0>         0.4287
     63 H28        -4.0410  -11.5500  -17.7528 H         1 <0>         0.1400
     64 H29        -4.7868   -9.9458  -17.5615 H         1 <0>         0.1341
     65 H30        -2.3133   -9.7803  -17.5641 H         1 <0>         0.1183
     66 H31        -2.2368  -10.8984  -16.1802 H         1 <0>         0.0939
     67 H32        -1.2564   -5.6436  -10.7110 H         1 <0>         0.4335
     68 H33        -1.3347   -5.0850   -9.1628 H         1 <0>         0.4437
     69 H34        -5.7655  -11.6171  -16.1399 H         1 <0>         0.4364
     70 H35        -2.0469   -4.2358  -10.3821 H         1 <0>         0.4327
@<TRIPOS>BOND
     1    1    2 1
     2    1   38 1
     3    1   39 1
     4    1   40 1
     5    2   11 2
     6    2    3 1
     7    3    8 ar
     8    3    4 ar
     9    4    5 ar
    10    4   41 1
    11    5    6 ar
    12    5   12 1
    13    6    7 ar
    14    6   42 1
    15    7    8 ar
    16    7   43 1
    17    8    9 1
    18    9   10 1
    19    9   11 1
    20   12   17 ar
    21   12   13 ar
    22   13   14 ar
    23   13   44 1
    24   14   15 ar
    25   14   18 1
    26   15   16 ar
    27   15   45 1
    28   16   17 ar
    29   17   46 1
    30   18   19 1
    31   19   20 1
    32   19   47 1
    33   19   48 1
    34   20   21 1
    35   20   22 1
    36   20   37 1
    37   22   23 1
    38   22   49 1
    39   22   50 1
    40   23   28 ar
    41   23   24 ar
    42   24   25 ar
    43   24   51 1
    44   25   26 ar
    45   25   52 1
    46   26   27 ar
    47   26   53 1
    48   27   28 ar
    49   27   29 1
    50   28   54 1
    51   29   30 1
    52   30   31 1
    53   30   55 1
    54   30   56 1
    55   31   36 1
    56   31   32 1
    57   31   57 1
    58   32   33 1
    59   32   58 1
    60   32   59 1
    61   33   34 1
    62   33   60 1
    63   33   61 1
    64   34   35 1
    65   34   62 1
    66   34   69 1
    67   35   36 1
    68   35   63 1
    69   35   64 1
    70   36   65 1
    71   36   66 1
    72   37   67 1
    73   37   68 1
    74   37   70 1
@<TRIPOS>MOLECULE
CHEMBL1080911
   50    53     0     0     0
SMALL
USER_CHARGES

@<TRIPOS>ATOM
      1 C1         -0.0184    1.5028    0.0103 C.3       1 <0>        -0.0817
      2 C2          0.0021   -0.0041    0.0020 C.2       1 <0>         0.1153
      3 C3          0.0084   -0.8582   -1.1821 C.ar      1 <0>        -0.1808
      4 C4         -0.0018   -0.6078   -2.5570 C.ar      1 <0>         0.0300
      5 C5          0.0089   -1.6753   -3.4443 C.ar      1 <0>        -0.0722
      6 C6          0.0293   -2.9921   -2.9624 C.ar      1 <0>        -0.0428
      7 C7          0.0394   -3.2421   -1.6229 C.ar      1 <0>        -0.1337
      8 C8          0.0294   -2.1862   -0.7124 C.ar      1 <0>         0.1541
      9 N1          0.0351   -2.1193    0.6567 N.pl3     1 <0>        -0.5009
     10 H1          0.0493   -2.8811    1.2570 H         1 <0>         0.4458
     11 N2          0.0230   -0.7772    1.0497 N.2       1 <0>        -0.2431
     12 C9         -0.0017   -1.4233   -4.9011 C.2       1 <0>         0.1338
     13 N3         -0.0152   -0.2764   -5.5676 N.2       1 <0>        -0.2550
     14 N4         -0.0225   -0.2378   -6.8283 N.2       1 <0>        -0.3209
     15 C10        -0.0171   -1.3429   -7.5635 C.2       1 <0>         0.2885
     16 S1          0.0079   -2.5791   -6.2685 S.3       1 <0>        -0.0105
     17 N5         -0.0234   -1.4962   -8.9409 N.pl3     1 <0>        -0.6955
     18 C11        -0.0378   -0.3162   -9.8092 C.3       1 <0>         0.1104
     19 C12        -0.0422   -0.7604  -11.2732 C.3       1 <0>         0.0252
     20 H2          0.8922   -1.2739  -11.5000 H         1 <0>         0.1564
     21 C13        -0.1828    0.4656  -12.1777 C.3       1 <0>        -0.0999
     22 C14        -0.0641    0.0426  -13.6193 C.ar      1 <0>        -0.0985
     23 C15         1.1750    0.0140  -14.2314 C.ar      1 <0>        -0.1024
     24 C16         1.2839   -0.3740  -15.5537 C.ar      1 <0>        -0.0558
     25 C17         0.1538   -0.7338  -16.2637 C.ar      1 <0>        -0.1629
     26 C18        -1.0852   -0.7061  -15.6514 C.ar      1 <0>        -0.0580
     27 C19        -1.1936   -0.3222  -14.3278 C.ar      1 <0>        -0.1412
     28 C20         0.2724   -1.1558  -17.7056 C.3       1 <0>         0.5037
     29 F1          0.4693   -2.5393  -17.7718 F         1 <0>        -0.1718
     30 F2         -0.9012   -0.8186  -18.3882 F         1 <0>        -0.1712
     31 F3          1.3593   -0.5014  -18.2951 F         1 <0>        -0.1702
     32 N6         -1.1706   -1.6720  -11.5050 N.4       1 <0>        -0.6407
     33 H3          1.0042    1.8801    0.0026 H         1 <0>         0.0887
     34 H4         -0.5455    1.8639   -0.8728 H         1 <0>         0.0857
     35 H5         -0.5286    1.8543    0.9071 H         1 <0>         0.0848
     36 H6         -0.0183    0.4071   -2.9259 H         1 <0>         0.1458
     37 H7          0.0368   -3.8165   -3.6601 H         1 <0>         0.1326
     38 H8          0.0547   -4.2611   -1.2654 H         1 <0>         0.1393
     39 H9         -0.0183   -2.3846   -9.3301 H         1 <0>         0.4121
     40 H10        -0.9315    0.2737   -9.6057 H         1 <0>         0.1043
     41 H11         0.8484    0.2882   -9.6155 H         1 <0>         0.1214
     42 H12        -1.1561    0.9283  -12.0138 H         1 <0>         0.1114
     43 H13         0.6043    1.1822  -11.9433 H         1 <0>         0.1339
     44 H14         2.0580    0.2951  -13.6766 H         1 <0>         0.1454
     45 H15         2.2520   -0.3957  -16.0321 H         1 <0>         0.1479
     46 H16        -1.9682   -0.9869  -16.2062 H         1 <0>         0.1471
     47 H17        -2.1611   -0.3041  -13.8483 H         1 <0>         0.1371
     48 H18        -2.0355   -1.1966  -11.2951 H         1 <0>         0.4382
     49 H19        -1.1735   -1.9649  -12.4705 H         1 <0>         0.4385
     50 H20        -1.0779   -2.4805  -10.9085 H         1 <0>         0.4322
@<TRIPOS>BOND
     1    1    2 1
     2    1   33 1
     3    1   34 1
     4    1   35 1
     5    2   11 2
     6    2    3 1
     7    3    8 ar
     8    3    4 ar
     9    4    5 ar
    10    4   36 1
    11    5    6 ar
    12    5   12 1
    13    6    7 ar
    14    6   37 1
    15    7    8 ar
    16    7   38 1
    17    8    9 1
    18    9   10 1
    19    9   11 1
    20   12   16 1
    21   12   13 2
    22   13   14 1
    23   14   15 2
    24   15   16 1
    25   15   17 1
    26   17   18 1
    27   17   39 1
    28   18   19 1
    29   18   40 1
    30   18   41 1
    31   19   20 1
    32   19   21 1
    33   19   32 1
    34   21   22 1
    35   21   42 1
    36   21   43 1
    37   22   27 ar
    38   22   23 ar
    39   23   24 ar
    40   23   44 1
    41   24   25 ar
    42   24   45 1
    43   25   26 ar
    44   25   28 1
    45   26   27 ar
    46   26   46 1
    47   27   47 1
    48   28   29 1
    49   28   30 1
    50   28   31 1
    51   32   48 1
    52   32   49 1
    53   32   50 1
@<TRIPOS>MOLECULE
CHEMBL403354
   60    64     0     0     0
SMALL
USER_CHARGES

@<TRIPOS>ATOM
      1 C1         -0.0225    1.8097    0.0120 C.3       1 <0>        -0.1490
      2 S1          0.0021   -0.0041    0.0020 S.3       1 <0>         0.0307
      3 C2          0.8484   -0.4107   -1.4889 C.ar      1 <0>         0.3272
      4 N1          1.2837    0.5796   -2.2667 N.ar      1 <0>        -0.5275
      5 C3          1.9229    0.3379   -3.3923 C.ar      1 <0>         0.2402
      6 C4          2.1419   -1.0009   -3.7658 C.ar      1 <0>        -0.2284
      7 C5          2.8151   -1.3392   -4.9495 C.ar      1 <0>         0.0091
      8 C6          2.9869   -2.6849   -5.2387 C.ar      1 <0>        -0.1088
      9 C7          2.4852   -3.6562   -4.3441 C.ar      1 <0>         0.2457
     10 N2          1.8548   -3.3109   -3.2368 N.ar      1 <0>        -0.4556
     11 C8          1.6645   -2.0319   -2.9134 C.ar      1 <0>         0.3662
     12 N3          1.0298   -1.6838   -1.7865 N.ar      1 <0>        -0.4846
     13 C9          2.6699   -5.0924   -4.6553 C.ar      1 <0>        -0.0175
     14 C10         2.6327   -5.5326   -5.9783 C.ar      1 <0>        -0.0771
     15 C11         2.8060   -6.8718   -6.2619 C.ar      1 <0>        -0.0959
     16 C12         3.0157   -7.7773   -5.2372 C.ar      1 <0>        -0.1530
     17 C13         3.0532   -7.3469   -3.9229 C.ar      1 <0>        -0.0965
     18 C14         2.8875   -6.0093   -3.6271 C.ar      1 <0>        -0.0704
     19 C15         3.2037   -9.2386   -5.5539 C.3       1 <0>         0.0453
     20 N4          4.6315   -9.5150   -5.7612 N.4       1 <0>        -0.5090
     21 C16         4.8147  -10.9395   -6.0698 C.3       1 <0>        -0.0078
     22 C17         6.3018  -11.2273   -6.2858 C.3       1 <0>        -0.0957
     23 C18         6.4898  -12.6887   -6.6024 C.ar      1 <0>        -0.1639
     24 C19         6.6951  -13.6070   -5.5839 C.ar      1 <0>        -0.0635
     25 C20         6.8632  -14.9409   -5.9221 C.ar      1 <0>        -0.1662
     26 C21         6.8209  -15.3085   -7.2539 C.ar      1 <0>         0.1170
     27 N5          6.6240  -14.4076   -8.1963 N.ar      1 <0>        -0.4784
     28 C22         6.4541  -13.1312   -7.9110 C.ar      1 <0>         0.1128
     29 C23         3.6902   -3.1001   -6.4757 C.ar      1 <0>        -0.0509
     30 C24         4.7183   -4.0397   -6.4143 C.ar      1 <0>        -0.0999
     31 C25         5.3692   -4.4227   -7.5693 C.ar      1 <0>        -0.1202
     32 C26         5.0036   -3.8759   -8.7863 C.ar      1 <0>        -0.1088
     33 C27         3.9842   -2.9431   -8.8533 C.ar      1 <0>        -0.1114
     34 C28         3.3223   -2.5567   -7.7057 C.ar      1 <0>        -0.1031
     35 H1          1.0001    2.1870    0.0043 H         1 <0>         0.0935
     36 H2         -0.5497    2.1708   -0.8711 H         1 <0>         0.0935
     37 H3         -0.5327    2.1613    0.9088 H         1 <0>         0.1179
     38 H4          2.2708    1.1489   -4.0150 H         1 <0>         0.1882
     39 H5          3.1879   -0.5750   -5.6154 H         1 <0>         0.1580
     40 H6          2.4684   -4.8268   -6.7790 H         1 <0>         0.1447
     41 H7          2.7774   -7.2139   -7.2859 H         1 <0>         0.1365
     42 H8          3.2169   -8.0585   -3.1272 H         1 <0>         0.1370
     43 H9          2.9213   -5.6738   -2.6011 H         1 <0>         0.1439
     44 H10         2.8338   -9.8407   -4.7239 H         1 <0>         0.1398
     45 H11         2.6501   -9.4884   -6.4590 H         1 <0>         0.1400
     46 H12         4.9739   -8.9577   -6.5294 H         1 <0>         0.4282
     47 H13         4.4449  -11.5416   -5.2399 H         1 <0>         0.1339
     48 H14         4.2612  -11.1892   -6.9750 H         1 <0>         0.1351
     49 H15         6.6717  -10.6252   -7.1157 H         1 <0>         0.0999
     50 H16         6.8554  -10.9776   -5.3806 H         1 <0>         0.0981
     51 H17         6.7238  -13.2906   -4.5517 H         1 <0>         0.1376
     52 H18         7.0256  -15.6833   -5.1548 H         1 <0>         0.1440
     53 H19         6.9510  -16.3456   -7.5257 H         1 <0>         0.1644
     54 H20         6.2898  -12.4230   -8.7096 H         1 <0>         0.1562
     55 H21         5.0050   -4.4667   -5.4647 H         1 <0>         0.1205
     56 H22         6.1658   -5.1505   -7.5230 H         1 <0>         0.1235
     57 H23         5.5163   -4.1781   -9.6875 H         1 <0>         0.1270
     58 H24         3.7033   -2.5193   -9.8062 H         1 <0>         0.1307
     59 H25         2.5236   -1.8318   -7.7599 H         1 <0>         0.1284
     60 H26         5.1440   -9.2838   -4.9233 H         1 <0>         0.4282
@<TRIPOS>BOND
     1    1    2 1
     2    1   35 1
     3    1   36 1
     4    1   37 1
     5    2    3 1
     6    3   12 ar
     7    3    4 ar
     8    4    5 ar
     9    5    6 ar
    10    5   38 1
    11    6   11 ar
    12    6    7 ar
    13    7    8 ar
    14    7   39 1
    15    8    9 ar
    16    8   29 1
    17    9   10 ar
    18    9   13 1
    19   10   11 ar
    20   11   12 ar
    21   13   18 ar
    22   13   14 ar
    23   14   15 ar
    24   14   40 1
    25   15   16 ar
    26   15   41 1
    27   16   17 ar
    28   16   19 1
    29   17   18 ar
    30   17   42 1
    31   18   43 1
    32   19   20 1
    33   19   44 1
    34   19   45 1
    35   20   21 1
    36   20   46 1
    37   20   60 1
    38   21   22 1
    39   21   47 1
    40   21   48 1
    41   22   23 1
    42   22   49 1
    43   22   50 1
    44   23   28 ar
    45   23   24 ar
    46   24   25 ar
    47   24   51 1
    48   25   26 ar
    49   25   52 1
    50   26   27 ar
    51   26   53 1
    52   27   28 ar
    53   28   54 1
    54   29   34 ar
    55   29   30 ar
    56   30   31 ar
    57   30   55 1
    58   31   32 ar
    59   31   56 1
    60   32   33 ar
    61   32   57 1
    62   33   34 ar
    63   33   58 1
    64   34   59 1
@<TRIPOS>MOLECULE
CHEMBL403354
   59    63     0     0     0
SMALL
USER_CHARGES

@<TRIPOS>ATOM
      1 C1         -0.0225    1.8097    0.0120 C.3       1 <0>        -0.1465
      2 S1          0.0021   -0.0041    0.0020 S.3       1 <0>         0.0186
      3 C2          0.8767   -0.4266    1.4721 C.ar      1 <0>         0.3227
      4 N1          1.3174    0.5551    2.2576 N.ar      1 <0>        -0.5341
      5 C3          1.9766    0.3014    3.3689 C.ar      1 <0>         0.2362
      6 C4          2.2114   -1.0411    3.7185 C.ar      1 <0>        -0.2317
      7 C5          2.9053   -1.3920    4.8864 C.ar      1 <0>        -0.0014
      8 C6          3.0909   -2.7406    5.1528 C.ar      1 <0>        -0.1022
      9 C7          2.5820   -3.7021    4.2518 C.ar      1 <0>         0.2699
     10 N2          1.9327   -3.3451    3.1593 N.ar      1 <0>        -0.4629
     11 C8          1.7278   -2.0628    2.8584 C.ar      1 <0>         0.3655
     12 N3          1.0636   -1.7028    1.7525 N.ar      1 <0>        -0.4822
     13 C9          2.7816   -5.1415    4.5386 C.ar      1 <0>        -0.0681
     14 C10         3.9528   -5.5760    5.1591 C.ar      1 <0>        -0.0766
     15 C11         4.1327   -6.9181    5.4241 C.ar      1 <0>        -0.1194
     16 C12         3.1545   -7.8322    5.0753 C.ar      1 <0>        -0.0607
     17 C13         1.9909   -7.4074    4.4592 C.ar      1 <0>        -0.1046
     18 C14         1.7967   -6.0672    4.1946 C.ar      1 <0>        -0.0675
     19 C15         3.3576   -9.2966    5.3671 C.3       1 <0>         0.0953
     20 N4          2.8280   -9.6080    6.7015 N.3       1 <0>        -0.6834
     21 C16         3.0090  -11.0304    7.0209 C.3       1 <0>         0.0637
     22 C17         2.4465  -11.3156    8.4149 C.3       1 <0>        -0.0740
     23 C18         2.6322  -12.7748    8.7426 C.ar      1 <0>        -0.1343
     24 C19         1.6537  -13.6992    8.4096 C.ar      1 <0>        -0.0712
     25 C20         1.8674  -15.0308    8.7305 C.ar      1 <0>        -0.1697
     26 C21         3.0404  -15.3902    9.3674 C.ar      1 <0>         0.0939
     27 N5          3.9490  -14.4837    9.6693 N.ar      1 <0>        -0.4837
     28 C22         3.7821  -13.2092    9.3737 C.ar      1 <0>         0.1007
     29 C23         3.8172   -3.1690    6.3720 C.ar      1 <0>        -0.0513
     30 C24         3.2649   -4.1343    7.2126 C.ar      1 <0>        -0.0873
     31 C25         3.9459   -4.5295    8.3460 C.ar      1 <0>        -0.1154
     32 C26         5.1740   -3.9694    8.6488 C.ar      1 <0>        -0.1099
     33 C27         5.7270   -3.0112    7.8184 C.ar      1 <0>        -0.1182
     34 C28         5.0579   -2.6123    6.6792 C.ar      1 <0>        -0.1071
     35 H1          1.0001    2.1870    0.0043 H         1 <0>         0.0912
     36 H2         -0.5497    2.1708   -0.8711 H         1 <0>         0.1142
     37 H3         -0.5327    2.1613    0.9088 H         1 <0>         0.0913
     38 H4          2.3293    1.1056    3.9977 H         1 <0>         0.1844
     39 H5          3.2838   -0.6351    5.5574 H         1 <0>         0.1545
     40 H6          4.7174   -4.8634    5.4312 H         1 <0>         0.1318
     41 H7          5.0391   -7.2558    5.9044 H         1 <0>         0.1239
     42 H8          1.2311   -8.1257    4.1890 H         1 <0>         0.1292
     43 H9          0.8860   -5.7362    3.7177 H         1 <0>         0.1316
     44 H10         2.8331   -9.8921    4.6199 H         1 <0>         0.0838
     45 H11         4.4220   -9.5292    5.3353 H         1 <0>         0.0425
     46 H12         3.2528   -9.0225    7.4048 H         1 <0>         0.3434
     47 H13         2.4820  -11.6379    6.2852 H         1 <0>         0.0752
     48 H14         4.0710  -11.2750    7.0006 H         1 <0>         0.0337
     49 H15         2.9734  -10.7080    9.1506 H         1 <0>         0.0757
     50 H16         1.3845  -11.0710    8.4352 H         1 <0>         0.0853
     51 H17         0.7465  -13.3892    7.9123 H         1 <0>         0.1351
     52 H18         1.1267  -15.7779    8.4864 H         1 <0>         0.1361
     53 H19         3.2146  -16.4255    9.6208 H         1 <0>         0.1559
     54 H20         4.5511  -12.4962    9.6321 H         1 <0>         0.1527
     55 H21         2.3059   -4.5717    6.9776 H         1 <0>         0.1243
     56 H22         3.5191   -5.2772    8.9980 H         1 <0>         0.1263
     57 H23         5.7030   -4.2813    9.5372 H         1 <0>         0.1243
     58 H24         6.6860   -2.5771    8.0600 H         1 <0>         0.1261
     59 H25         5.4926   -1.8673    6.0293 H         1 <0>         0.1243
@<TRIPOS>BOND
     1    1    2 1
     2    1   35 1
     3    1   36 1
     4    1   37 1
     5    2    3 1
     6    3   12 ar
     7    3    4 ar
     8    4    5 ar
     9    5    6 ar
    10    5   38 1
    11    6   11 ar
    12    6    7 ar
    13    7    8 ar
    14    7   39 1
    15    8    9 ar
    16    8   29 1
    17    9   10 ar
    18    9   13 1
    19   10   11 ar
    20   11   12 ar
    21   13   18 ar
    22   13   14 ar
    23   14   15 ar
    24   14   40 1
    25   15   16 ar
    26   15   41 1
    27   16   17 ar
    28   16   19 1
    29   17   18 ar
    30   17   42 1
    31   18   43 1
    32   19   20 1
    33   19   44 1
    34   19   45 1
    35   20   21 1
    36   20   46 1
    37   21   22 1
    38   21   47 1
    39   21   48 1
    40   22   23 1
    41   22   49 1
    42   22   50 1
    43   23   28 ar
    44   23   24 ar
    45   24   25 ar
    46   24   51 1
    47   25   26 ar
    48   25   52 1
    49   26   27 ar
    50   26   53 1
    51   27   28 ar
    52   28   54 1
    53   29   34 ar
    54   29   30 ar
    55   30   31 ar
    56   30   55 1
    57   31   32 ar
    58   31   56 1
    59   32   33 ar
    60   32   57 1
    61   33   34 ar
    62   33   58 1
    63   34   59 1
@<TRIPOS>MOLECULE
CHEMBL210237
   79    85     0     0     0
SMALL
USER_CHARGES

@<TRIPOS>ATOM
      1 C1         -0.0187    1.5258    0.0104 C.3       1 <0>        -0.1450
      2 C2          0.0021   -0.0041    0.0020 C.3       1 <0>        -0.0294
      3 C3          0.7421   -0.5109    1.2415 C.3       1 <0>        -0.1494
      4 C4         -1.4333   -0.5336    0.0129 C.3       1 <0>        -0.0465
      5 C5         -2.1387   -0.0476    1.2528 C.2       1 <0>        -0.1594
      6 C6         -2.2581   -0.7093    2.4146 C.2       1 <0>         0.0517
      7 N1         -2.9640    0.0459    3.3112 N.pl3     1 <0>        -0.5959
      8 H1         -3.1780   -0.2217    4.2186 H         1 <0>         0.4159
      9 C7         -3.3251    1.2425    2.7334 C.ar      1 <0>         0.0948
     10 C8         -2.8186    1.2390    1.4207 C.ar      1 <0>        -0.0982
     11 C9         -3.0295    2.3407    0.5898 C.ar      1 <0>        -0.0699
     12 C10        -3.7250    3.4200    1.0578 C.ar      1 <0>        -0.1473
     13 C11        -4.2232    3.4301    2.3531 C.ar      1 <0>        -0.0980
     14 C12        -4.0345    2.3495    3.1871 C.ar      1 <0>        -0.1311
     15 C13         0.7182   -0.4975   -1.2568 C.3       1 <0>        -0.0765
     16 C14         2.1085    0.0900   -1.3399 C.ar      1 <0>        -0.1228
     17 C15         3.2103   -0.0015   -0.5234 C.ar      1 <0>        -0.0450
     18 C16         4.3853    0.6677   -0.8662 C.ar      1 <0>        -0.0852
     19 C17         4.4299    1.4243   -2.0363 C.ar      1 <0>        -0.0644
     20 C18         3.3219    1.5109   -2.8489 C.ar      1 <0>        -0.1383
     21 C19         2.1456    0.8426   -2.5084 C.ar      1 <0>         0.1672
     22 N2          0.9141    0.7806   -3.1603 N.am      1 <0>        -0.6614
     23 C20         0.0252    0.0207   -2.4989 C.2       1 <0>         0.5343
     24 O1         -1.1179   -0.2073   -2.8341 O.2       1 <0>        -0.4807
     25 C21         5.5796    0.5754    0.0091 C.ar      1 <0>        -0.0320
     26 C22         6.7577    1.2477   -0.3253 C.ar      1 <0>        -0.0992
     27 C23         7.8474    1.1289    0.5274 C.ar      1 <0>         0.0703
     28 C24         7.7292    0.3529    1.6726 C.ar      1 <0>         0.0185
     29 N3          6.6018   -0.2686    1.9572 N.ar      1 <0>        -0.4373
     30 C25         5.5417   -0.1787    1.1803 C.ar      1 <0>         0.0837
     31 O2          9.0152    1.7640    0.2442 O.3       1 <0>        -0.3228
     32 C26        10.0889    1.5916    1.1712 C.3       1 <0>         0.0264
     33 C27        11.3108    2.3753    0.6879 C.3       1 <0>         0.0434
     34 H2         11.5603    2.0690   -0.3280 H         1 <0>         0.1529
     35 C28        12.4968    2.0917    1.6119 C.3       1 <0>        -0.0555
     36 C29        13.7302    2.7648    1.0672 C.2       1 <0>        -0.2376
     37 C30        14.6620    2.2067    0.2783 C.2       1 <0>         0.1039
     38 N4         15.6349    3.1231   -0.0149 N.pl3     1 <0>        -0.5845
     39 H3         16.4125    2.9523   -0.5689 H         1 <0>         0.4265
     40 C31        15.3455    4.3239    0.5936 C.ar      1 <0>         0.0987
     41 C32        14.1364    4.1540    1.2929 C.ar      1 <0>        -0.1171
     42 C33        13.5898    5.2207    2.0085 C.ar      1 <0>        -0.1141
     43 C34        14.2311    6.4274    2.0230 C.ar      1 <0>        -0.1190
     44 C35        15.4218    6.6013    1.3314 C.ar      1 <0>        -0.0932
     45 C36        15.9837    5.5593    0.6263 C.ar      1 <0>        -0.1110
     46 N5         11.0090    3.8129    0.7057 N.4       1 <0>        -0.6363
     47 H4          1.0039    1.9031    0.0027 H         1 <0>         0.0525
     48 H5         -0.5459    1.8868   -0.8726 H         1 <0>         0.0489
     49 H6         -0.5289    1.8773    0.9072 H         1 <0>         0.0735
     50 H7          0.2319   -0.1594    2.1383 H         1 <0>         0.0683
     51 H8          0.7568   -1.6008    1.2356 H         1 <0>         0.0593
     52 H9          1.7647   -0.1336    1.2338 H         1 <0>         0.0591
     53 H10        -1.9605   -0.1726   -0.8702 H         1 <0>         0.0888
     54 H11        -1.4185   -1.6235    0.0069 H         1 <0>         0.0722
     55 H12        -1.8569   -1.6923    2.6124 H         1 <0>         0.1676
     56 H13        -2.6442    2.3402   -0.4191 H         1 <0>         0.1177
     57 H14        -3.8879    4.2722    0.4146 H         1 <0>         0.1206
     58 H15        -4.7702    4.2907    2.7088 H         1 <0>         0.1246
     59 H16        -4.4250    2.3673    4.1939 H         1 <0>         0.1190
     60 H17         0.7602   -1.5866   -1.2691 H         1 <0>         0.1281
     61 H18         3.1664   -0.5896    0.3814 H         1 <0>         0.1391
     62 H19         5.3370    1.9447   -2.3062 H         1 <0>         0.1321
     63 H20         3.3634    2.0990   -3.7537 H         1 <0>         0.1332
     64 H21         0.7213    1.2346   -3.9955 H         1 <0>         0.4161
     65 H22         6.8195    1.8439   -1.2236 H         1 <0>         0.1478
     66 H23         8.5731    0.2566    2.3396 H         1 <0>         0.1572
     67 H24         4.6351   -0.6992    1.4514 H         1 <0>         0.1658
     68 H25         9.7854    1.9599    2.1512 H         1 <0>         0.0919
     69 H26        10.3408    0.5335    1.2427 H         1 <0>         0.1138
     70 H27        12.2819    2.4783    2.6081 H         1 <0>         0.0998
     71 H28        12.6646    1.0161    1.6680 H         1 <0>         0.1218
     72 H29        14.6463    1.1854   -0.0726 H         1 <0>         0.1791
     73 H30        12.6632    5.0929    2.5484 H         1 <0>         0.1149
     74 H31        13.8078    7.2524    2.5767 H         1 <0>         0.1312
     75 H32        15.9165    7.5611    1.3518 H         1 <0>         0.1352
     76 H33        16.9100    5.7049    0.0904 H         1 <0>         0.1294
     77 H34        10.7780    4.0964    1.6461 H         1 <0>         0.4300
     78 H35        11.8148    4.3297    0.3870 H         1 <0>         0.4381
     79 H36        10.2269    3.9999    0.0964 H         1 <0>         0.4392
@<TRIPOS>BOND
     1    1    2 1
     2    1   47 1
     3    1   48 1
     4    1   49 1
     5    2    3 1
     6    2    4 1
     7    2   15 1
     8    3   50 1
     9    3   51 1
    10    3   52 1
    11    4    5 1
    12    4   53 1
    13    4   54 1
    14    5   10 1
    15    5    6 2
    16    6    7 1
    17    6   55 1
    18    7    8 1
    19    7    9 1
    20    9   14 ar
    21    9   10 ar
    22   10   11 ar
    23   11   12 ar
    24   11   56 1
    25   12   13 ar
    26   12   57 1
    27   13   14 ar
    28   13   58 1
    29   14   59 1
    30   15   23 1
    31   15   16 1
    32   15   60 1
    33   16   21 ar
    34   16   17 ar
    35   17   18 ar
    36   17   61 1
    37   18   19 ar
    38   18   25 1
    39   19   20 ar
    40   19   62 1
    41   20   21 ar
    42   20   63 1
    43   21   22 1
    44   22   23 am
    45   22   64 1
    46   23   24 2
    47   25   30 ar
    48   25   26 ar
    49   26   27 ar
    50   26   65 1
    51   27   28 ar
    52   27   31 1
    53   28   29 ar
    54   28   66 1
    55   29   30 ar
    56   30   67 1
    57   31   32 1
    58   32   33 1
    59   32   68 1
    60   32   69 1
    61   33   34 1
    62   33   35 1
    63   33   46 1
    64   35   36 1
    65   35   70 1
    66   35   71 1
    67   36   41 1
    68   36   37 2
    69   37   38 1
    70   37   72 1
    71   38   39 1
    72   38   40 1
    73   40   45 ar
    74   40   41 ar
    75   41   42 ar
    76   42   43 ar
    77   42   73 1
    78   43   44 ar
    79   43   74 1
    80   44   45 ar
    81   44   75 1
    82   45   76 1
    83   46   77 1
    84   46   78 1
    85   46   79 1
@<TRIPOS>MOLECULE
CHEMBL210237
   79    85     0     0     0
SMALL
USER_CHARGES

@<TRIPOS>ATOM
      1 C1         -0.0187    1.5258    0.0104 C.3       1 <0>        -0.1505
      2 C2          0.0021   -0.0041    0.0020 C.3       1 <0>        -0.0290
      3 C3          0.7421   -0.5109    1.2415 C.3       1 <0>        -0.1446
      4 C4         -1.4333   -0.5336    0.0129 C.3       1 <0>        -0.0454
      5 C5         -2.1387   -0.0476    1.2528 C.2       1 <0>        -0.1600
      6 C6         -2.2581   -0.7093    2.4146 C.2       1 <0>         0.0531
      7 N1         -2.9640    0.0459    3.3112 N.pl3     1 <0>        -0.5959
      8 H1         -3.1780   -0.2217    4.2186 H         1 <0>         0.4159
      9 C7         -3.3251    1.2425    2.7334 C.ar      1 <0>         0.0944
     10 C8         -2.8186    1.2390    1.4207 C.ar      1 <0>        -0.0985
     11 C9         -3.0295    2.3407    0.5898 C.ar      1 <0>        -0.0711
     12 C10        -3.7250    3.4200    1.0578 C.ar      1 <0>        -0.1468
     13 C11        -4.2232    3.4301    2.3531 C.ar      1 <0>        -0.0987
     14 C12        -4.0345    2.3495    3.1871 C.ar      1 <0>        -0.1305
     15 C13         0.7182   -0.4975   -1.2568 C.3       1 <0>        -0.0764
     16 C14         2.1673   -0.0674   -1.2448 C.ar      1 <0>        -0.1224
     17 C15         2.7744    1.1656   -1.2297 C.ar      1 <0>        -0.0448
     18 C16         4.1666    1.2533   -1.2218 C.ar      1 <0>        -0.0844
     19 C17         4.9296    0.0866   -1.2293 C.ar      1 <0>        -0.0648
     20 C18         4.3138   -1.1447   -1.2445 C.ar      1 <0>        -0.1383
     21 C19         2.9217   -1.2352   -1.2524 C.ar      1 <0>         0.1659
     22 N2          2.0834   -2.3499   -1.2680 N.am      1 <0>        -0.6614
     23 C20         0.7837   -2.0098   -1.2715 C.2       1 <0>         0.5345
     24 O1         -0.1601   -2.7716   -1.2841 O.2       1 <0>        -0.4823
     25 C21         4.8310    2.5797   -1.2059 C.ar      1 <0>        -0.0328
     26 C22         6.2247    2.6749   -1.2038 C.ar      1 <0>        -0.0992
     27 C23         6.7976    3.9399   -1.1887 C.ar      1 <0>         0.0698
     28 C24         5.9724    5.0564   -1.1763 C.ar      1 <0>         0.0189
     29 N3          4.6601    4.9297   -1.1784 N.ar      1 <0>        -0.4368
     30 C25         4.0744    3.7499   -1.1988 C.ar      1 <0>         0.0844
     31 O2          8.1492    4.0832   -1.1855 O.3       1 <0>        -0.3229
     32 C26         8.6600    5.4177   -1.1697 C.3       1 <0>         0.0264
     33 C27        10.1895    5.3783   -1.1684 C.3       1 <0>         0.0435
     34 H2         10.5366    4.7701   -0.3331 H         1 <0>         0.1527
     35 C28        10.7362    6.8001   -1.0258 C.3       1 <0>        -0.0556
     36 C29        12.2373    6.7510   -0.9012 C.2       1 <0>        -0.2374
     37 C30        12.9438    6.7408    0.2401 C.2       1 <0>         0.1039
     38 N4         14.2823    6.6924   -0.0401 N.pl3     1 <0>        -0.5846
     39 H3         14.9902    6.6764    0.6229 H         1 <0>         0.4265
     40 C31        14.4746    6.6697   -1.4033 C.ar      1 <0>         0.0988
     41 C32        13.2018    6.6990   -2.0025 C.ar      1 <0>        -0.1171
     42 C33        13.0862    6.6792   -3.3935 C.ar      1 <0>        -0.1140
     43 C34        14.2115    6.6278   -4.1671 C.ar      1 <0>        -0.1191
     44 C35        15.4691    6.5945   -3.5809 C.ar      1 <0>        -0.0932
     45 C36        15.6065    6.6226   -2.2101 C.ar      1 <0>        -0.1111
     46 N5         10.6653    4.7949   -2.4299 N.4       1 <0>        -0.6363
     47 H4          1.0039    1.9031    0.0027 H         1 <0>         0.0569
     48 H5         -0.5459    1.8868   -0.8726 H         1 <0>         0.0589
     49 H6         -0.5289    1.8773    0.9072 H         1 <0>         0.0745
     50 H7          0.2319   -0.1594    2.1383 H         1 <0>         0.0678
     51 H8          0.7568   -1.6008    1.2356 H         1 <0>         0.0486
     52 H9          1.7647   -0.1336    1.2338 H         1 <0>         0.0553
     53 H10        -1.9605   -0.1726   -0.8702 H         1 <0>         0.0732
     54 H11        -1.4185   -1.6235    0.0069 H         1 <0>         0.0869
     55 H12        -1.8569   -1.6923    2.6124 H         1 <0>         0.1657
     56 H13        -2.6442    2.3402   -0.4191 H         1 <0>         0.1202
     57 H14        -3.8879    4.2722    0.4146 H         1 <0>         0.1213
     58 H15        -4.7702    4.2907    2.7088 H         1 <0>         0.1243
     59 H16        -4.4250    2.3673    4.1939 H         1 <0>         0.1185
     60 H17         0.2154   -0.1282   -2.1506 H         1 <0>         0.1285
     61 H18         2.1752    2.0642   -1.2242 H         1 <0>         0.1399
     62 H19         6.0078    0.1488   -1.2236 H         1 <0>         0.1321
     63 H20         4.9111   -2.0445   -1.2506 H         1 <0>         0.1330
     64 H21         2.4024   -3.2659   -1.2757 H         1 <0>         0.4159
     65 H22         6.8407    1.7878   -1.2132 H         1 <0>         0.1476
     66 H23         6.4119    6.0429   -1.1646 H         1 <0>         0.1573
     67 H24         2.9961    3.6888   -1.2048 H         1 <0>         0.1662
     68 H25         8.3110    5.9509   -2.0540 H         1 <0>         0.0921
     69 H26         8.3091    5.9305   -0.2742 H         1 <0>         0.1138
     70 H27        10.4635    7.3841   -1.9049 H         1 <0>         0.0999
     71 H28        10.3127    7.2646   -0.1354 H         1 <0>         0.1218
     72 H29        12.5188    6.7672    1.2326 H         1 <0>         0.1791
     73 H30        12.1108    6.7042   -3.8566 H         1 <0>         0.1149
     74 H31        14.1216    6.6125   -5.2433 H         1 <0>         0.1312
     75 H32        16.3491    6.5532   -4.2056 H         1 <0>         0.1352
     76 H33        16.5895    6.5951   -1.7635 H         1 <0>         0.1293
     77 H34        10.3440    5.3579   -3.2031 H         1 <0>         0.4300
     78 H35        11.6740    4.7689   -2.4291 H         1 <0>         0.4380
     79 H36        10.3048    3.8572   -2.5239 H         1 <0>         0.4392
@<TRIPOS>BOND
     1    1    2 1
     2    1   47 1
     3    1   48 1
     4    1   49 1
     5    2    3 1
     6    2    4 1
     7    2   15 1
     8    3   50 1
     9    3   51 1
    10    3   52 1
    11    4    5 1
    12    4   53 1
    13    4   54 1
    14    5   10 1
    15    5    6 2
    16    6    7 1
    17    6   55 1
    18    7    8 1
    19    7    9 1
    20    9   14 ar
    21    9   10 ar
    22   10   11 ar
    23   11   12 ar
    24   11   56 1
    25   12   13 ar
    26   12   57 1
    27   13   14 ar
    28   13   58 1
    29   14   59 1
    30   15   23 1
    31   15   16 1
    32   15   60 1
    33   16   21 ar
    34   16   17 ar
    35   17   18 ar
    36   17   61 1
    37   18   19 ar
    38   18   25 1
    39   19   20 ar
    40   19   62 1
    41   20   21 ar
    42   20   63 1
    43   21   22 1
    44   22   23 am
    45   22   64 1
    46   23   24 2
    47   25   30 ar
    48   25   26 ar
    49   26   27 ar
    50   26   65 1
    51   27   28 ar
    52   27   31 1
    53   28   29 ar
    54   28   66 1
    55   29   30 ar
    56   30   67 1
    57   31   32 1
    58   32   33 1
    59   32   68 1
    60   32   69 1
    61   33   34 1
    62   33   35 1
    63   33   46 1
    64   35   36 1
    65   35   70 1
    66   35   71 1
    67   36   41 1
    68   36   37 2
    69   37   38 1
    70   37   72 1
    71   38   39 1
    72   38   40 1
    73   40   45 ar
    74   40   41 ar
    75   41   42 ar
    76   42   43 ar
    77   42   73 1
    78   43   44 ar
    79   43   74 1
    80   44   45 ar
    81   44   75 1
    82   45   76 1
    83   46   77 1
    84   46   78 1
    85   46   79 1
@<TRIPOS>MOLECULE
CHEMBL205415
   51    54     0     0     0
SMALL
USER_CHARGES

@<TRIPOS>ATOM
      1 C1         -0.0091    1.3662   -0.0122 C.ar      1 <0>        -0.1171
      2 C2          1.1771    2.0874   -0.0270 C.ar      1 <0>        -0.0918
      3 C3          2.3928    1.4399   -0.0458 C.ar      1 <0>        -0.1106
      4 C4          2.4350    0.0493   -0.0498 C.ar      1 <0>         0.0992
      5 C5          1.2303   -0.6768   -0.0343 C.ar      1 <0>        -0.1171
      6 C6          0.0092    0.0001   -0.0158 C.ar      1 <0>        -0.1151
      7 C7          1.6102   -2.0915   -0.0431 C.2       1 <0>        -0.2409
      8 C8          2.9517   -2.1375   -0.0624 C.2       1 <0>         0.1067
      9 N1          3.4619   -0.8678   -0.0666 N.pl3     1 <0>        -0.5830
     10 H1          4.4063   -0.6468   -0.0793 H         1 <0>         0.4273
     11 C9          0.6729   -3.2715   -0.0321 C.3       1 <0>        -0.0506
     12 C10         0.2363   -3.5893   -1.4637 C.3       1 <0>         0.0184
     13 H2          1.1174   -3.7400   -2.0873 H         1 <0>         0.1675
     14 C11        -0.6016   -4.8419   -1.4669 C.2       1 <0>         0.5033
     15 O1         -1.8109   -4.7625   -1.5155 O.2       1 <0>        -0.5049
     16 N2         -0.0072   -6.0504   -1.4157 N.am      1 <0>        -0.6383
     17 C12        -0.7856   -7.2098   -1.3199 C.ar      1 <0>         0.0707
     18 C13        -2.0138   -7.2878   -1.9657 C.ar      1 <0>        -0.0613
     19 C14        -2.7545   -8.4692   -1.8388 C.ar      1 <0>        -0.0829
     20 C15        -2.2324   -9.5154   -1.0729 C.ar      1 <0>         0.1083
     21 N3         -1.0637   -9.3950   -0.4789 N.ar      1 <0>        -0.4548
     22 C16        -0.3373   -8.2991   -0.5824 C.ar      1 <0>         0.0952
     23 C17        -4.0638   -8.6072   -2.5017 C.2       1 <0>        -0.1047
     24 C18        -4.7649   -9.7450   -2.3727 C.2       1 <0>        -0.0870
     25 C19        -6.0738   -9.8829   -3.0354 C.ar      1 <0>        -0.0224
     26 C20        -6.6029   -8.8412   -3.8099 C.ar      1 <0>        -0.1673
     27 C21        -7.8309   -9.0142   -4.4122 C.ar      1 <0>         0.1032
     28 N4         -8.5050  -10.1394   -4.2669 N.ar      1 <0>        -0.4820
     29 C22        -8.0443  -11.1450   -3.5471 C.ar      1 <0>         0.1048
     30 C23        -6.8224  -11.0618   -2.9141 C.ar      1 <0>        -0.1574
     31 N5         -0.5538   -2.4703   -1.9945 N.4       1 <0>        -0.6217
     32 H3         -0.9538    1.8892    0.0067 H         1 <0>         0.1322
     33 H4          1.1464    3.1669   -0.0239 H         1 <0>         0.1360
     34 H5          3.3100    2.0099   -0.0579 H         1 <0>         0.1301
     35 H6         -0.9176   -0.5543   -0.0040 H         1 <0>         0.1158
     36 H7          3.5409   -3.0425   -0.0733 H         1 <0>         0.1801
     37 H8          1.1824   -4.1363    0.3928 H         1 <0>         0.1226
     38 H9         -0.2035   -3.0337    0.5707 H         1 <0>         0.1049
     39 H10         0.9601   -6.1168   -1.4454 H         1 <0>         0.4234
     40 H11        -2.3870   -6.4593   -2.5494 H         1 <0>         0.1513
     41 H12        -2.7937  -10.4319   -0.9671 H         1 <0>         0.1669
     42 H13         0.6184   -8.2454   -0.0823 H         1 <0>         0.1631
     43 H14        -4.4591   -7.7932   -3.0911 H         1 <0>         0.1300
     44 H15        -4.3696  -10.5590   -1.7833 H         1 <0>         0.1320
     45 H16        -6.0572   -7.9174   -3.9325 H         1 <0>         0.1351
     46 H17        -8.2473   -8.2176   -5.0109 H         1 <0>         0.1585
     47 H18        -8.6309  -12.0472   -3.4559 H         1 <0>         0.1612
     48 H19        -6.4497  -11.8904   -2.3301 H         1 <0>         0.1407
     49 H20        -1.3695   -2.3309   -1.4172 H         1 <0>         0.4401
     50 H21         0.0072   -1.6317   -1.9923 H         1 <0>         0.4441
     51 H22        -0.8417   -2.6799   -2.9385 H         1 <0>         0.4385
@<TRIPOS>BOND
     1    1    6 ar
     2    1    2 ar
     3    1   32 1
     4    2    3 ar
     5    2   33 1
     6    3    4 ar
     7    3   34 1
     8    4    9 1
     9    4    5 ar
    10    5    6 ar
    11    5    7 1
    12    6   35 1
    13    7    8 2
    14    7   11 1
    15    8    9 1
    16    8   36 1
    17    9   10 1
    18   11   12 1
    19   11   37 1
    20   11   38 1
    21   12   13 1
    22   12   14 1
    23   12   31 1
    24   14   15 2
    25   14   16 am
    26   16   17 1
    27   16   39 1
    28   17   22 ar
    29   17   18 ar
    30   18   19 ar
    31   18   40 1
    32   19   20 ar
    33   19   23 1
    34   20   21 ar
    35   20   41 1
    36   21   22 ar
    37   22   42 1
    38   23   24 2
    39   23   43 1
    40   24   25 1
    41   24   44 1
    42   25   30 ar
    43   25   26 ar
    44   26   27 ar
    45   26   45 1
    46   27   28 ar
    47   27   46 1
    48   28   29 ar
    49   29   30 ar
    50   29   47 1
    51   30   48 1
    52   31   49 1
    53   31   50 1
    54   31   51 1
@<TRIPOS>MOLECULE
CHEMBL205415
   50    53     0     0     0
SMALL
USER_CHARGES

@<TRIPOS>ATOM
      1 C1         -0.0091    1.3662   -0.0122 C.ar      1 <0>        -0.1391
      2 C2          1.1771    2.0874   -0.0270 C.ar      1 <0>        -0.0961
      3 C3          2.3928    1.4399   -0.0458 C.ar      1 <0>        -0.1277
      4 C4          2.4350    0.0493   -0.0498 C.ar      1 <0>         0.0962
      5 C5          1.2303   -0.6768   -0.0343 C.ar      1 <0>        -0.1036
      6 C6          0.0092    0.0001   -0.0158 C.ar      1 <0>        -0.0777
      7 C7          1.6102   -2.0915   -0.0431 C.2       1 <0>        -0.1810
      8 C8          2.9517   -2.1375   -0.0624 C.2       1 <0>         0.0645
      9 N1          3.4619   -0.8678   -0.0666 N.pl3     1 <0>        -0.5926
     10 H1          4.4063   -0.6468   -0.0793 H         1 <0>         0.4181
     11 C9          0.6729   -3.2715   -0.0321 C.3       1 <0>        -0.0722
     12 C10         0.2363   -3.5893   -1.4637 C.3       1 <0>         0.0867
     13 H2          1.1174   -3.7400   -2.0873 H         1 <0>         0.1056
     14 C11        -0.6016   -4.8419   -1.4669 C.2       1 <0>         0.5221
     15 O1         -1.8109   -4.7625   -1.5155 O.2       1 <0>        -0.5054
     16 N2         -0.0072   -6.0504   -1.4157 N.am      1 <0>        -0.6699
     17 C12        -0.7856   -7.2098   -1.3199 C.ar      1 <0>         0.0982
     18 C13        -2.0138   -7.2878   -1.9657 C.ar      1 <0>        -0.0644
     19 C14        -2.7545   -8.4692   -1.8388 C.ar      1 <0>        -0.0925
     20 C15        -2.2324   -9.5154   -1.0729 C.ar      1 <0>         0.0924
     21 N3         -1.0637   -9.3950   -0.4789 N.ar      1 <0>        -0.4611
     22 C16        -0.3373   -8.2991   -0.5824 C.ar      1 <0>         0.0802
     23 C17        -4.0638   -8.6072   -2.5017 C.2       1 <0>        -0.0820
     24 C18        -4.7649   -9.7450   -2.3727 C.2       1 <0>        -0.1108
     25 C19        -6.0738   -9.8829   -3.0354 C.ar      1 <0>        -0.0116
     26 C20        -6.6029   -8.8412   -3.8099 C.ar      1 <0>        -0.1693
     27 C21        -7.8309   -9.0142   -4.4122 C.ar      1 <0>         0.1029
     28 N4         -8.5050  -10.1394   -4.2669 N.ar      1 <0>        -0.4881
     29 C22        -8.0443  -11.1450   -3.5471 C.ar      1 <0>         0.1013
     30 C23        -6.8224  -11.0618   -2.9141 C.ar      1 <0>        -0.1629
     31 N5         -0.5538   -2.4703   -1.9945 N.3       1 <0>        -0.8256
     32 H3         -0.9538    1.8892    0.0067 H         1 <0>         0.1244
     33 H4          1.1464    3.1669   -0.0239 H         1 <0>         0.1269
     34 H5          3.3100    2.0099   -0.0579 H         1 <0>         0.1209
     35 H6         -0.9176   -0.5543   -0.0040 H         1 <0>         0.1189
     36 H7          3.5409   -3.0425   -0.0733 H         1 <0>         0.1713
     37 H8          1.1824   -4.1363    0.3928 H         1 <0>         0.0798
     38 H9         -0.2035   -3.0337    0.5707 H         1 <0>         0.0785
     39 H10         0.9601   -6.1168   -1.4454 H         1 <0>         0.4146
     40 H11        -2.3870   -6.4593   -2.5494 H         1 <0>         0.1540
     41 H12        -2.7937  -10.4319   -0.9671 H         1 <0>         0.1603
     42 H13         0.6184   -8.2454   -0.0823 H         1 <0>         0.1592
     43 H14        -4.4591   -7.7932   -3.0911 H         1 <0>         0.1291
     44 H15        -4.3696  -10.5590   -1.7833 H         1 <0>         0.1305
     45 H16        -6.0572   -7.9174   -3.9325 H         1 <0>         0.1373
     46 H17        -8.2473   -8.2176   -5.0109 H         1 <0>         0.1576
     47 H18        -8.6309  -12.0472   -3.4559 H         1 <0>         0.1578
     48 H19        -6.4497  -11.8904   -2.3301 H         1 <0>         0.1384
     49 H20        -1.3768   -2.3105   -1.4331 H         1 <0>         0.3500
     50 H21         0.0054   -1.6333   -2.0629 H         1 <0>         0.3557
@<TRIPOS>BOND
     1    1    6 ar
     2    1    2 ar
     3    1   32 1
     4    2    3 ar
     5    2   33 1
     6    3    4 ar
     7    3   34 1
     8    4    9 1
     9    4    5 ar
    10    5    6 ar
    11    5    7 1
    12    6   35 1
    13    7    8 2
    14    7   11 1
    15    8    9 1
    16    8   36 1
    17    9   10 1
    18   11   12 1
    19   11   37 1
    20   11   38 1
    21   12   13 1
    22   12   14 1
    23   12   31 1
    24   14   15 2
    25   14   16 am
    26   16   17 1
    27   16   39 1
    28   17   22 ar
    29   17   18 ar
    30   18   19 ar
    31   18   40 1
    32   19   20 ar
    33   19   23 1
    34   20   21 ar
    35   20   41 1
    36   21   22 ar
    37   22   42 1
    38   23   24 2
    39   23   43 1
    40   24   25 1
    41   24   44 1
    42   25   30 ar
    43   25   26 ar
    44   26   27 ar
    45   26   45 1
    46   27   28 ar
    47   27   46 1
    48   28   29 ar
    49   29   30 ar
    50   29   47 1
    51   30   48 1
    52   31   49 1
    53   31   50 1
@<TRIPOS>MOLECULE
CHEMBL498051
   47    50     0     0     0
SMALL
USER_CHARGES

@<TRIPOS>ATOM
      1 C1         -0.2011    0.7877   -1.7735 C.2       1 <0>        -0.2126
      2 C2          1.0307    1.0169   -2.2602 C.2       1 <0>         0.0887
      3 N1          1.9240    0.1502   -1.6910 N.pl3     1 <0>        -0.5766
      4 H1          2.8741    0.1236   -1.8845 H         1 <0>         0.4275
      5 C3          1.2763   -0.6769   -0.8042 C.ar      1 <0>         0.2905
      6 C4         -0.0823   -0.3115   -0.8193 C.ar      1 <0>        -0.1240
      7 C5         -0.9922   -1.0029    0.0055 C.ar      1 <0>         0.0339
      8 C6         -0.4906   -2.0319    0.8084 C.ar      1 <0>        -0.1462
      9 C7          0.8590   -2.3265    0.7623 C.ar      1 <0>         0.1428
     10 N2          1.6874   -1.6634   -0.0182 N.ar      1 <0>        -0.4750
     11 C8         -2.4246   -0.6527    0.0215 C.2       1 <0>        -0.0131
     12 C9         -3.5275   -1.4903   -0.0615 C.2       1 <0>        -0.1498
     13 C10        -4.7765   -0.9367   -0.0262 C.2       1 <0>        -0.0182
     14 C11        -4.8916    0.4412    0.0913 C.2       1 <0>        -0.2786
     15 S1         -3.1840    0.9570    0.1604 S.3       1 <0>         0.1730
     16 C12        -6.1045    1.2621    0.1495 C.2       1 <0>         0.6132
     17 O1         -7.1998    0.7345    0.0929 O.2       1 <0>        -0.5334
     18 N3         -6.0068    2.6013    0.2658 N.am      1 <0>        -0.7319
     19 C13        -7.2190    3.4218    0.3241 C.3       1 <0>         0.1230
     20 H2         -7.9983    2.8812    0.8612 H         1 <0>         0.1244
     21 C14        -6.9133    4.7324    1.0519 C.3       1 <0>        -0.0853
     22 C15        -6.5609    4.4394    2.4875 C.ar      1 <0>        -0.0562
     23 C16        -7.5434    4.3956    3.4648 C.ar      1 <0>        -0.1664
     24 C17        -7.1825    4.1239    4.7709 C.ar      1 <0>         0.1099
     25 N4         -5.9216    3.9083    5.0914 N.ar      1 <0>        -0.4758
     26 C18        -4.9611    3.9420    4.1885 C.ar      1 <0>         0.1093
     27 C19        -5.2471    4.2014    2.8615 C.ar      1 <0>        -0.1694
     28 C20        -7.6970    3.7271   -1.0969 C.3       1 <0>        -0.0216
     29 N5         -7.8760    2.4692   -1.8342 N.4       1 <0>        -0.6347
     30 Br1        -3.3069   -3.3616   -0.2210 Br        1 <0>         0.0021
     31 H3         -1.1050    1.3181   -2.0346 H         1 <0>         0.1487
     32 H4          1.2785    1.7721   -2.9914 H         1 <0>         0.1855
     33 H5         -1.1498   -2.5896    1.4571 H         1 <0>         0.1470
     34 H6          1.2448   -3.1215    1.3832 H         1 <0>         0.1743
     35 H7         -5.6567   -1.5594   -0.0888 H         1 <0>         0.1601
     36 H8         -5.1338    3.0218    0.3109 H         1 <0>         0.4148
     37 H9         -6.0742    5.2306    0.5662 H         1 <0>         0.0980
     38 H10        -7.7894    5.3799    1.0178 H         1 <0>         0.1117
     39 H11        -8.5777    4.5721    3.2087 H         1 <0>         0.1379
     40 H12        -7.9418    4.0881    5.5381 H         1 <0>         0.1612
     41 H13        -3.9397    3.7607    4.4888 H         1 <0>         0.1595
     42 H14        -4.4567    4.2227    2.1258 H         1 <0>         0.1308
     43 H15        -8.6461    4.2614   -1.0541 H         1 <0>         0.1525
     44 H16        -6.9556    4.3437   -1.6050 H         1 <0>         0.1406
     45 H17        -6.9974    1.9747   -1.8739 H         1 <0>         0.4270
     46 H18        -8.5623    1.8985   -1.3639 H         1 <0>         0.4431
     47 H19        -8.1912    2.6706   -2.7713 H         1 <0>         0.4379
@<TRIPOS>BOND
     1    1    6 1
     2    1    2 2
     3    1   31 1
     4    2    3 1
     5    2   32 1
     6    3    4 1
     7    3    5 1
     8    5   10 ar
     9    5    6 ar
    10    6    7 ar
    11    7    8 ar
    12    7   11 1
    13    8    9 ar
    14    8   33 1
    15    9   10 ar
    16    9   34 1
    17   11   15 1
    18   11   12 2
    19   12   13 1
    20   12   30 1
    21   13   14 2
    22   13   35 1
    23   14   15 1
    24   14   16 1
    25   16   17 2
    26   16   18 am
    27   18   19 1
    28   18   36 1
    29   19   20 1
    30   19   21 1
    31   19   28 1
    32   21   22 1
    33   21   37 1
    34   21   38 1
    35   22   27 ar
    36   22   23 ar
    37   23   24 ar
    38   23   39 1
    39   24   25 ar
    40   24   40 1
    41   25   26 ar
    42   26   27 ar
    43   26   41 1
    44   27   42 1
    45   28   29 1
    46   28   43 1
    47   28   44 1
    48   29   45 1
    49   29   46 1
    50   29   47 1
@<TRIPOS>MOLECULE
CHEMBL389468
   60    64     0     0     0
SMALL
USER_CHARGES

@<TRIPOS>ATOM
      1 C1         -0.0184    1.5028    0.0103 C.3       1 <0>        -0.0807
      2 C2          0.0021   -0.0041    0.0020 C.2       1 <0>         0.1088
      3 C3          0.0083   -0.8581   -1.1820 C.ar      1 <0>        -0.1763
      4 C4         -0.0019   -0.6082   -2.5573 C.ar      1 <0>        -0.0084
      5 C5          0.0079   -1.6738   -3.4431 C.ar      1 <0>        -0.1060
      6 C6          0.0279   -2.9891   -2.9631 C.ar      1 <0>        -0.0534
      7 C7          0.0380   -3.2410   -1.6234 C.ar      1 <0>        -0.1371
      8 C8          0.0285   -2.1860   -0.7124 C.ar      1 <0>         0.1440
      9 N1          0.0337   -2.1193    0.6566 N.pl3     1 <0>        -0.5045
     10 H1          0.0468   -2.8812    1.2569 H         1 <0>         0.4444
     11 N2          0.0230   -0.7772    1.0497 N.2       1 <0>        -0.2435
     12 C9         -0.0034   -1.4202   -4.9053 C.ar      1 <0>        -0.0271
     13 C10         0.0004   -2.4846   -5.8096 C.ar      1 <0>        -0.1015
     14 C11        -0.0110   -2.1940   -7.1677 C.ar      1 <0>         0.0699
     15 C12        -0.0257   -0.8671   -7.5756 C.ar      1 <0>         0.0161
     16 N3         -0.0289    0.1132   -6.6940 N.ar      1 <0>        -0.4368
     17 C13        -0.0238   -0.1167   -5.3969 C.ar      1 <0>         0.0812
     18 O1         -0.0074   -3.1961   -8.0859 O.3       1 <0>        -0.3229
     19 C14        -0.0198   -2.8144   -9.4629 C.3       1 <0>         0.0276
     20 C15        -0.0136   -4.0682  -10.3397 C.3       1 <0>         0.0433
     21 H2          0.8359   -4.6958  -10.0703 H         1 <0>         0.1562
     22 C16         0.0989   -3.6615  -11.8104 C.3       1 <0>        -0.0971
     23 C17         0.2286   -4.8962  -12.6646 C.ar      1 <0>        -0.1227
     24 C18         1.4808   -5.4130  -12.9455 C.ar      1 <0>        -0.1053
     25 C19         1.6071   -6.5458  -13.7287 C.ar      1 <0>        -0.0987
     26 C20         0.4831   -7.1674  -14.2342 C.ar      1 <0>        -0.0978
     27 C21        -0.7804   -6.6516  -13.9541 C.ar      1 <0>        -0.0204
     28 C22        -0.9021   -5.5126  -13.1604 C.ar      1 <0>        -0.1375
     29 C23        -1.9924   -7.3152  -14.4951 C.ar      1 <0>        -0.0668
     30 C24        -3.2557   -6.7960  -14.2197 C.ar      1 <0>        -0.1121
     31 C25        -4.3796   -7.4170  -14.7258 C.ar      1 <0>        -0.1169
     32 C26        -4.2535   -8.5528  -15.5052 C.ar      1 <0>        -0.1056
     33 C27        -3.0018   -9.0725  -15.7817 C.ar      1 <0>        -0.1121
     34 C28        -1.8709   -8.4566  -15.2851 C.ar      1 <0>        -0.1036
     35 N4         -1.2605   -4.8167  -10.1327 N.4       1 <0>        -0.6374
     36 H3          1.0042    1.8801    0.0026 H         1 <0>         0.0878
     37 H4         -0.5455    1.8639   -0.8728 H         1 <0>         0.0842
     38 H5         -0.5286    1.8543    0.9071 H         1 <0>         0.0843
     39 H6         -0.0177    0.4067   -2.9264 H         1 <0>         0.1365
     40 H7          0.0350   -3.8127   -3.6617 H         1 <0>         0.1317
     41 H8          0.0531   -4.2604   -1.2670 H         1 <0>         0.1332
     42 H9          0.0123   -3.5071   -5.4619 H         1 <0>         0.1476
     43 H10        -0.0343   -0.6345   -8.6302 H         1 <0>         0.1566
     44 H11        -0.0314    0.7142   -4.7071 H         1 <0>         0.1669
     45 H12        -0.9167   -2.2306   -9.6700 H         1 <0>         0.0927
     46 H13         0.8631   -2.2138   -9.6814 H         1 <0>         0.1146
     47 H14        -0.7936   -3.1088  -12.1038 H         1 <0>         0.1041
     48 H15         0.9777   -3.0313  -11.9469 H         1 <0>         0.1271
     49 H16         2.3629   -4.9298  -12.5520 H         1 <0>         0.1319
     50 H17         2.5871   -6.9446  -13.9455 H         1 <0>         0.1357
     51 H18         0.5829   -8.0518  -14.8460 H         1 <0>         0.1348
     52 H19        -1.8794   -5.1107  -12.9370 H         1 <0>         0.1251
     53 H20        -3.3554   -5.9094  -13.6110 H         1 <0>         0.1192
     54 H21        -5.3593   -7.0156  -14.5127 H         1 <0>         0.1281
     55 H22        -5.1356   -9.0358  -15.8989 H         1 <0>         0.1293
     56 H23        -2.9091   -9.9598  -16.3904 H         1 <0>         0.1307
     57 H24        -0.8939   -8.8606  -15.5053 H         1 <0>         0.1278
     58 H25        -2.0469   -4.2358  -10.3821 H         1 <0>         0.4320
     59 H26        -1.2564   -5.6436  -10.7110 H         1 <0>         0.4366
     60 H27        -1.3347   -5.0850   -9.1628 H         1 <0>         0.4425
@<TRIPOS>BOND
     1    1    2 1
     2    1   36 1
     3    1   37 1
     4    1   38 1
     5    2   11 2
     6    2    3 1
     7    3    8 ar
     8    3    4 ar
     9    4    5 ar
    10    4   39 1
    11    5    6 ar
    12    5   12 1
    13    6    7 ar
    14    6   40 1
    15    7    8 ar
    16    7   41 1
    17    8    9 1
    18    9   10 1
    19    9   11 1
    20   12   17 ar
    21   12   13 ar
    22   13   14 ar
    23   13   42 1
    24   14   15 ar
    25   14   18 1
    26   15   16 ar
    27   15   43 1
    28   16   17 ar
    29   17   44 1
    30   18   19 1
    31   19   20 1
    32   19   45 1
    33   19   46 1
    34   20   21 1
    35   20   22 1
    36   20   35 1
    37   22   23 1
    38   22   47 1
    39   22   48 1
    40   23   28 ar
    41   23   24 ar
    42   24   25 ar
    43   24   49 1
    44   25   26 ar
    45   25   50 1
    46   26   27 ar
    47   26   51 1
    48   27   28 ar
    49   27   29 1
    50   28   52 1
    51   29   34 ar
    52   29   30 ar
    53   30   31 ar
    54   30   53 1
    55   31   32 ar
    56   31   54 1
    57   32   33 ar
    58   32   55 1
    59   33   34 ar
    60   33   56 1
    61   34   57 1
    62   35   58 1
    63   35   59 1
    64   35   60 1
@<TRIPOS>MOLECULE
CHEMBL378843
   60    65     0     0     0
SMALL
USER_CHARGES

@<TRIPOS>ATOM
      1 C1         -0.0165    1.3620    0.0095 C.ar      1 <0>        -0.1189
      2 C2          1.1697    2.0834    0.0021 C.ar      1 <0>        -0.0931
      3 C3          2.3856    1.4362   -0.0134 C.ar      1 <0>        -0.1108
      4 C4          2.4281    0.0456   -0.0212 C.ar      1 <0>         0.0986
      5 C5          1.2234   -0.6807   -0.0132 C.ar      1 <0>        -0.1171
      6 C6          0.0021   -0.0041    0.0020 C.ar      1 <0>        -0.1143
      7 C7          1.6036   -2.0953   -0.0245 C.2       1 <0>        -0.2382
      8 C8          2.9451   -2.1410   -0.0380 C.2       1 <0>         0.1044
      9 N1          3.4551   -0.8713   -0.0363 N.pl3     1 <0>        -0.5842
     10 H1          4.3995   -0.6501   -0.0442 H         1 <0>         0.4266
     11 C9          0.6664   -3.2754   -0.0210 C.3       1 <0>        -0.0554
     12 C10         0.2361   -3.5891   -1.4554 C.3       1 <0>         0.0434
     13 H2          1.1200   -3.7379   -2.0756 H         1 <0>         0.1536
     14 C11        -0.6144   -4.8610   -1.4661 C.3       1 <0>         0.0243
     15 O1         -0.9189   -5.2190   -2.8156 O.3       1 <0>        -0.3195
     16 C12        -1.6732   -6.3341   -3.0030 C.ar      1 <0>         0.0690
     17 C13        -2.0049   -6.7481   -4.2878 C.ar      1 <0>        -0.0830
     18 C14        -2.7803   -7.8981   -4.4342 C.ar      1 <0>        -0.0353
     19 C15        -3.1936   -8.5901   -3.2805 C.ar      1 <0>         0.2004
     20 N2         -2.8497   -8.1530   -2.0746 N.ar      1 <0>        -0.4246
     21 C16        -2.1140   -7.0728   -1.9125 C.ar      1 <0>         0.0382
     22 C17        -4.0143   -9.8081   -3.4116 C.2       1 <0>         0.0011
     23 C18        -3.9558  -10.9020   -2.6033 C.2       1 <0>        -0.1444
     24 C19        -4.9079  -11.8178   -3.0910 C.2       1 <0>        -0.2171
     25 C20        -5.4951  -11.2455   -4.1611 C.2       1 <0>        -0.0129
     26 O2         -4.9568  -10.0299   -4.3486 O.3       1 <0>        -0.1582
     27 C21        -3.1625   -8.3827   -5.7809 C.ar      1 <0>        -0.0301
     28 C22        -2.9577   -9.7310   -6.1200 C.ar      1 <0>        -0.0936
     29 C23        -3.2989  -10.2023   -7.3476 C.ar      1 <0>        -0.0757
     30 C24        -3.8652   -9.3351   -8.2972 C.ar      1 <0>        -0.1050
     31 C25        -4.2337   -9.7775   -9.5775 C.ar      1 <0>         0.1496
     32 N3         -4.7603   -8.9350  -10.4354 N.ar      1 <0>        -0.4832
     33 C26        -4.9684   -7.6565  -10.1513 C.ar      1 <0>         0.0830
     34 C27        -4.6461   -7.1285   -8.9383 C.ar      1 <0>        -0.1568
     35 C28        -4.0764   -7.9709   -7.9646 C.ar      1 <0>        -0.0226
     36 C29        -3.7236   -7.5047   -6.6924 C.ar      1 <0>        -0.0879
     37 N4         -0.5518   -2.4687   -1.9863 N.4       1 <0>        -0.6365
     38 H3         -0.9613    1.8849    0.0259 H         1 <0>         0.1312
     39 H4          1.1388    3.1630    0.0081 H         1 <0>         0.1354
     40 H5          3.3028    2.0064   -0.0198 H         1 <0>         0.1295
     41 H6         -0.9246   -0.5587    0.0082 H         1 <0>         0.1148
     42 H7          3.5346   -3.0459   -0.0490 H         1 <0>         0.1792
     43 H8          1.1742   -4.1414    0.4036 H         1 <0>         0.1220
     44 H9         -0.2127   -3.0396    0.5787 H         1 <0>         0.1000
     45 H10        -0.0618   -5.6715   -0.9910 H         1 <0>         0.1154
     46 H11        -1.5405   -4.6834   -0.9195 H         1 <0>         0.0933
     47 H12        -1.6708   -6.1925   -5.1515 H         1 <0>         0.1532
     48 H13        -1.8528   -6.7534   -0.9144 H         1 <0>         0.1659
     49 H14        -3.3047  -11.0408   -1.7529 H         1 <0>         0.1541
     50 H15        -5.1261  -12.7944   -2.6848 H         1 <0>         0.1562
     51 H16        -6.2726  -11.6896   -4.7649 H         1 <0>         0.2090
     52 H17        -2.5225  -10.4021   -5.3944 H         1 <0>         0.1261
     53 H18        -3.1349  -11.2411   -7.5932 H         1 <0>         0.1392
     54 H19        -4.0838  -10.8100   -9.8566 H         1 <0>         0.1668
     55 H20        -5.4054   -7.0161  -10.9032 H         1 <0>         0.1564
     56 H21        -4.8239   -6.0843   -8.7273 H         1 <0>         0.1386
     57 H22        -3.8834   -6.4702   -6.4265 H         1 <0>         0.1320
     58 H23         0.0090   -1.6300   -1.9793 H         1 <0>         0.4385
     59 H24        -0.8356   -2.6756   -2.9322 H         1 <0>         0.4392
     60 H25        -1.3700   -2.3311   -1.4122 H         1 <0>         0.4300
@<TRIPOS>BOND
     1    1    6 ar
     2    1    2 ar
     3    1   38 1
     4    2    3 ar
     5    2   39 1
     6    3    4 ar
     7    3   40 1
     8    4    9 1
     9    4    5 ar
    10    5    6 ar
    11    5    7 1
    12    6   41 1
    13    7    8 2
    14    7   11 1
    15    8    9 1
    16    8   42 1
    17    9   10 1
    18   11   12 1
    19   11   43 1
    20   11   44 1
    21   12   13 1
    22   12   14 1
    23   12   37 1
    24   14   15 1
    25   14   45 1
    26   14   46 1
    27   15   16 1
    28   16   21 ar
    29   16   17 ar
    30   17   18 ar
    31   17   47 1
    32   18   19 ar
    33   18   27 1
    34   19   20 ar
    35   19   22 1
    36   20   21 ar
    37   21   48 1
    38   22   26 1
    39   22   23 2
    40   23   24 1
    41   23   49 1
    42   24   25 2
    43   24   50 1
    44   25   26 1
    45   25   51 1
    46   27   36 ar
    47   27   28 ar
    48   28   29 ar
    49   28   52 1
    50   29   30 ar
    51   29   53 1
    52   30   35 ar
    53   30   31 ar
    54   31   32 ar
    55   31   54 1
    56   32   33 ar
    57   33   34 ar
    58   33   55 1
    59   34   35 ar
    60   34   56 1
    61   35   36 ar
    62   36   57 1
    63   37   58 1
    64   37   59 1
    65   37   60 1
@<TRIPOS>MOLECULE
CHEMBL226744
   56    60     0     0     0
SMALL
USER_CHARGES

@<TRIPOS>ATOM
      1 C1         -0.0184    1.5028    0.0103 C.3       1 <0>        -0.0808
      2 C2          0.0021   -0.0041    0.0020 C.2       1 <0>         0.1088
      3 C3          0.0083   -0.8581   -1.1820 C.ar      1 <0>        -0.1763
      4 C4         -0.0019   -0.6082   -2.5573 C.ar      1 <0>        -0.0080
      5 C5          0.0079   -1.6738   -3.4431 C.ar      1 <0>        -0.1068
      6 C6          0.0279   -2.9891   -2.9631 C.ar      1 <0>        -0.0533
      7 C7          0.0380   -3.2410   -1.6234 C.ar      1 <0>        -0.1371
      8 C8          0.0285   -2.1860   -0.7124 C.ar      1 <0>         0.1442
      9 N1          0.0337   -2.1193    0.6566 N.pl3     1 <0>        -0.5044
     10 H1          0.0468   -2.8812    1.2569 H         1 <0>         0.4444
     11 N2          0.0230   -0.7772    1.0497 N.2       1 <0>        -0.2433
     12 C9         -0.0034   -1.4202   -4.9053 C.ar      1 <0>        -0.0266
     13 C10         0.0004   -2.4846   -5.8096 C.ar      1 <0>        -0.1011
     14 C11        -0.0110   -2.1940   -7.1677 C.ar      1 <0>         0.0693
     15 C12        -0.0257   -0.8671   -7.5756 C.ar      1 <0>         0.0162
     16 N3         -0.0289    0.1132   -6.6940 N.ar      1 <0>        -0.4368
     17 C13        -0.0238   -0.1167   -5.3969 C.ar      1 <0>         0.0818
     18 O1         -0.0074   -3.1961   -8.0859 O.3       1 <0>        -0.3228
     19 C14        -0.0198   -2.8144   -9.4629 C.3       1 <0>         0.0272
     20 C15        -0.0136   -4.0682  -10.3397 C.3       1 <0>         0.0410
     21 H2          0.8359   -4.6958  -10.0703 H         1 <0>         0.1590
     22 C16         0.0989   -3.6615  -11.8104 C.3       1 <0>        -0.0954
     23 C17         0.2286   -4.8962  -12.6646 C.ar      1 <0>        -0.1113
     24 C18         1.4799   -5.4127  -12.9454 C.ar      1 <0>        -0.0803
     25 C19         1.6030   -6.5440  -13.7294 C.ar      1 <0>        -0.0762
     26 C20         0.4709   -7.1652  -14.2357 C.ar      1 <0>         0.0687
     27 C21        -0.7871   -6.6475  -13.9514 C.ar      1 <0>         0.0617
     28 C22        -0.9037   -5.5135  -13.1611 C.ar      1 <0>        -0.1136
     29 O2         -1.9113   -7.2458  -14.4315 O.3       1 <0>        -0.2983
     30 C23        -1.7388   -8.1619  -15.5183 C.3       1 <0>         0.4156
     31 C24        -0.5597   -9.0860  -15.1853 C.3       1 <0>         0.4142
     32 O3          0.6081   -8.2768  -15.0090 O.3       1 <0>        -0.2920
     33 F1         -0.8293   -9.7886  -14.0059 F         1 <0>        -0.1471
     34 F2         -0.3552   -9.9871  -16.2358 F         1 <0>        -0.1117
     35 F3         -2.9017   -8.9218  -15.6838 F         1 <0>        -0.1133
     36 F4         -1.4659   -7.4537  -16.6935 F         1 <0>        -0.1429
     37 N4         -1.2605   -4.8167  -10.1327 N.4       1 <0>        -0.6388
     38 H3          1.0042    1.8801    0.0026 H         1 <0>         0.0879
     39 H4         -0.5455    1.8639   -0.8728 H         1 <0>         0.0843
     40 H5         -0.5286    1.8543    0.9071 H         1 <0>         0.0843
     41 H6         -0.0177    0.4067   -2.9264 H         1 <0>         0.1366
     42 H7          0.0350   -3.8127   -3.6617 H         1 <0>         0.1316
     43 H8          0.0531   -4.2604   -1.2670 H         1 <0>         0.1332
     44 H9          0.0123   -3.5071   -5.4619 H         1 <0>         0.1477
     45 H10        -0.0343   -0.6345   -8.6302 H         1 <0>         0.1567
     46 H11        -0.0314    0.7142   -4.7071 H         1 <0>         0.1670
     47 H12        -0.9167   -2.2306   -9.6700 H         1 <0>         0.0940
     48 H13         0.8631   -2.2138   -9.6814 H         1 <0>         0.1161
     49 H14        -0.7936   -3.1088  -12.1038 H         1 <0>         0.1112
     50 H15         0.9777   -3.0313  -11.9469 H         1 <0>         0.1353
     51 H16         2.3627   -4.9310  -12.5517 H         1 <0>         0.1556
     52 H17         2.5817   -6.9451  -13.9479 H         1 <0>         0.1608
     53 H18        -1.8803   -5.1106  -12.9366 H         1 <0>         0.1499
     54 H19        -1.2564   -5.6436  -10.7110 H         1 <0>         0.4352
     55 H20        -1.3347   -5.0850   -9.1628 H         1 <0>         0.4446
     56 H21        -2.0469   -4.2358  -10.3821 H         1 <0>         0.4339
@<TRIPOS>BOND
     1    1    2 1
     2    1   38 1
     3    1   39 1
     4    1   40 1
     5    2   11 2
     6    2    3 1
     7    3    8 ar
     8    3    4 ar
     9    4    5 ar
    10    4   41 1
    11    5    6 ar
    12    5   12 1
    13    6    7 ar
    14    6   42 1
    15    7    8 ar
    16    7   43 1
    17    8    9 1
    18    9   10 1
    19    9   11 1
    20   12   17 ar
    21   12   13 ar
    22   13   14 ar
    23   13   44 1
    24   14   15 ar
    25   14   18 1
    26   15   16 ar
    27   15   45 1
    28   16   17 ar
    29   17   46 1
    30   18   19 1
    31   19   20 1
    32   19   47 1
    33   19   48 1
    34   20   21 1
    35   20   22 1
    36   20   37 1
    37   22   23 1
    38   22   49 1
    39   22   50 1
    40   23   28 ar
    41   23   24 ar
    42   24   25 ar
    43   24   51 1
    44   25   26 ar
    45   25   52 1
    46   26   32 1
    47   26   27 ar
    48   27   28 ar
    49   27   29 1
    50   28   53 1
    51   29   30 1
    52   30   31 1
    53   30   35 1
    54   30   36 1
    55   31   32 1
    56   31   33 1
    57   31   34 1
    58   37   54 1
    59   37   55 1
    60   37   56 1
@<TRIPOS>MOLECULE
CHEMBL605838
   60    65     0     0     0
SMALL
USER_CHARGES

@<TRIPOS>ATOM
      1 C1         -0.0184    1.5028    0.0103 C.3       1 <0>        -0.0779
      2 C2          0.0021   -0.0041    0.0020 C.2       1 <0>         0.1043
      3 C3          0.0084   -0.8581   -1.1821 C.ar      1 <0>        -0.1798
      4 C4         -0.0022   -0.6080   -2.5573 C.ar      1 <0>        -0.0152
      5 C5          0.0081   -1.6742   -3.4435 C.ar      1 <0>        -0.1079
      6 C6          0.0290   -2.9899   -2.9630 C.ar      1 <0>        -0.0416
      7 C7          0.0390   -3.2413   -1.6233 C.ar      1 <0>        -0.1372
      8 C8          0.0294   -2.1860   -0.7124 C.ar      1 <0>         0.1450
      9 N1          0.0351   -2.1193    0.6567 N.pl3     1 <0>        -0.5036
     10 H1          0.0487   -2.8812    1.2569 H         1 <0>         0.4446
     11 N2          0.0230   -0.7772    1.0497 N.2       1 <0>        -0.2435
     12 C9         -0.0035   -1.4210   -4.9043 C.ar      1 <0>        -0.0325
     13 C10        -0.9355   -0.5478   -5.4653 C.ar      1 <0>        -0.0856
     14 C11        -0.9051   -0.3436   -6.8395 C.ar      1 <0>         0.0600
     15 C12         0.0427   -1.0081   -7.6063 C.ar      1 <0>         0.0319
     16 N3          0.9125   -1.8281   -7.0523 N.ar      1 <0>        -0.4334
     17 C13         0.9273   -2.0517   -5.7455 C.ar      1 <0>         0.1993
     18 C14         1.9297   -2.9782   -5.1692 C.2       1 <0>        -0.1588
     19 C15         2.4700   -4.1950   -5.7872 C.2       1 <0>        -0.1832
     20 C16         3.3423   -4.7046   -4.9018 C.2       1 <0>        -0.0341
     21 O1          3.3771   -3.9146   -3.8179 O.3       1 <0>        -0.1728
     22 C17         2.5441   -2.8742   -3.9610 C.2       1 <0>         0.0143
     23 O2         -1.7953    0.4986   -7.4278 O.3       1 <0>        -0.3220
     24 C18        -1.7005    0.6562   -8.8449 C.3       1 <0>         0.0268
     25 C19        -2.7757    1.6345   -9.3223 C.3       1 <0>         0.0445
     26 H2         -3.7544    1.2903   -8.9878 H         1 <0>         0.1508
     27 C20        -2.7559    1.7081  -10.8504 C.3       1 <0>        -0.0540
     28 C21        -3.8928    2.5754  -11.3263 C.2       1 <0>        -0.2238
     29 C22        -5.1095    2.1560  -11.7121 C.2       1 <0>         0.1196
     30 N4         -5.8771    3.2256  -12.0778 N.pl3     1 <0>        -0.5786
     31 H3         -6.7933    3.1731  -12.3919 H         1 <0>         0.4292
     32 C23        -5.1557    4.3887  -11.9328 C.ar      1 <0>         0.0492
     33 C24        -3.8817    4.0344  -11.4493 C.ar      1 <0>         0.0743
     34 N5         -2.9686    4.9707  -11.2091 N.ar      1 <0>        -0.4790
     35 C25        -3.2246    6.2454  -11.4102 C.ar      1 <0>         0.1089
     36 C26        -4.4586    6.6661  -11.8814 C.ar      1 <0>        -0.1456
     37 C27        -5.4417    5.7321  -12.1561 C.ar      1 <0>        -0.0689
     38 N6         -2.5081    2.9668   -8.7643 N.4       1 <0>        -0.6316
     39 H4          1.0042    1.8801    0.0026 H         1 <0>         0.0861
     40 H5         -0.5455    1.8639   -0.8728 H         1 <0>         0.0806
     41 H6         -0.5286    1.8543    0.9071 H         1 <0>         0.0829
     42 H7         -0.0187    0.4068   -2.9262 H         1 <0>         0.1312
     43 H8          0.0369   -3.8138   -3.6613 H         1 <0>         0.1335
     44 H9          0.0543   -4.2606   -1.2666 H         1 <0>         0.1336
     45 H10        -1.6631   -0.0432   -4.8469 H         1 <0>         0.1490
     46 H11         0.0672   -0.8505   -8.6745 H         1 <0>         0.1595
     47 H12         2.2173   -4.5988   -6.7565 H         1 <0>         0.1550
     48 H13         3.9220   -5.6053   -5.0401 H         1 <0>         0.2076
     49 H14         2.3861   -2.0877   -3.2379 H         1 <0>         0.2036
     50 H15        -0.7153    1.0452   -9.1021 H         1 <0>         0.0925
     51 H16        -1.8474   -0.3095   -9.3285 H         1 <0>         0.1132
     52 H17        -1.8095    2.1358  -11.1813 H         1 <0>         0.1049
     53 H18        -2.8659    0.7056  -11.2639 H         1 <0>         0.1222
     54 H19        -5.4331    1.1258  -11.7305 H         1 <0>         0.1875
     55 H20        -2.4587    6.9783  -11.2038 H         1 <0>         0.1680
     56 H21        -4.6493    7.7172  -12.0400 H         1 <0>         0.1491
     57 H22        -6.4103    6.0387  -12.5224 H         1 <0>         0.1408
     58 H23        -1.6021    3.2853   -9.0740 H         1 <0>         0.4350
     59 H24        -3.2171    3.6119   -9.0792 H         1 <0>         0.4356
     60 H25        -2.5211    2.9182   -7.7566 H         1 <0>         0.4367
@<TRIPOS>BOND
     1    1    2 1
     2    1   39 1
     3    1   40 1
     4    1   41 1
     5    2   11 2
     6    2    3 1
     7    3    8 ar
     8    3    4 ar
     9    4    5 ar
    10    4   42 1
    11    5    6 ar
    12    5   12 1
    13    6    7 ar
    14    6   43 1
    15    7    8 ar
    16    7   44 1
    17    8    9 1
    18    9   10 1
    19    9   11 1
    20   12   17 ar
    21   12   13 ar
    22   13   14 ar
    23   13   45 1
    24   14   15 ar
    25   14   23 1
    26   15   16 ar
    27   15   46 1
    28   16   17 ar
    29   17   18 1
    30   18   22 2
    31   18   19 1
    32   19   20 2
    33   19   47 1
    34   20   21 1
    35   20   48 1
    36   21   22 1
    37   22   49 1
    38   23   24 1
    39   24   25 1
    40   24   50 1
    41   24   51 1
    42   25   26 1
    43   25   27 1
    44   25   38 1
    45   27   28 1
    46   27   52 1
    47   27   53 1
    48   28   33 1
    49   28   29 2
    50   29   30 1
    51   29   54 1
    52   30   31 1
    53   30   32 1
    54   32   37 ar
    55   32   33 ar
    56   33   34 ar
    57   34   35 ar
    58   35   36 ar
    59   35   55 1
    60   36   37 ar
    61   36   56 1
    62   37   57 1
    63   38   58 1
    64   38   59 1
    65   38   60 1
@<TRIPOS>MOLECULE
CHEMBL605838
   61    66     0     0     0
SMALL
USER_CHARGES

@<TRIPOS>ATOM
      1 C1         -0.0184    1.5028    0.0103 C.3       1 <0>        -0.0773
      2 C2          0.0021   -0.0041    0.0020 C.2       1 <0>         0.1026
      3 C3          0.0084   -0.8581   -1.1821 C.ar      1 <0>        -0.1805
      4 C4         -0.0022   -0.6080   -2.5573 C.ar      1 <0>        -0.0140
      5 C5          0.0081   -1.6742   -3.4435 C.ar      1 <0>        -0.1144
      6 C6          0.0290   -2.9899   -2.9630 C.ar      1 <0>        -0.0427
      7 C7          0.0390   -3.2413   -1.6233 C.ar      1 <0>        -0.1346
      8 C8          0.0294   -2.1860   -0.7124 C.ar      1 <0>         0.1474
      9 N1          0.0351   -2.1193    0.6567 N.pl3     1 <0>        -0.5010
     10 H1          0.0487   -2.8812    1.2569 H         1 <0>         0.4463
     11 N2          0.0230   -0.7772    1.0497 N.2       1 <0>        -0.2394
     12 C9         -0.0035   -1.4210   -4.9043 C.ar      1 <0>        -0.0278
     13 C10        -0.9355   -0.5478   -5.4653 C.ar      1 <0>        -0.0819
     14 C11        -0.9051   -0.3436   -6.8395 C.ar      1 <0>         0.0479
     15 C12         0.0427   -1.0081   -7.6063 C.ar      1 <0>         0.0331
     16 N3          0.9125   -1.8281   -7.0523 N.ar      1 <0>        -0.4336
     17 C13         0.9273   -2.0517   -5.7455 C.ar      1 <0>         0.2104
     18 C14         1.9297   -2.9782   -5.1692 C.2       1 <0>        -0.1671
     19 C15         2.4700   -4.1950   -5.7872 C.2       1 <0>        -0.1842
     20 C16         3.3423   -4.7046   -4.9018 C.2       1 <0>        -0.0294
     21 O1          3.3771   -3.9146   -3.8179 O.3       1 <0>        -0.1704
     22 C17         2.5441   -2.8742   -3.9610 C.2       1 <0>         0.0200
     23 O2         -1.7953    0.4986   -7.4278 O.3       1 <0>        -0.3232
     24 C18        -1.7005    0.6562   -8.8449 C.3       1 <0>         0.0248
     25 C19        -2.7757    1.6345   -9.3223 C.3       1 <0>         0.0366
     26 H2         -3.7544    1.2903   -8.9878 H         1 <0>         0.1647
     27 C20        -2.7559    1.7081  -10.8504 C.3       1 <0>        -0.0691
     28 C21        -3.8928    2.5754  -11.3263 C.2       1 <0>        -0.2301
     29 C22        -5.1095    2.1560  -11.7121 C.2       1 <0>         0.1815
     30 N4         -5.8771    3.2256  -12.0778 N.pl3     1 <0>        -0.5474
     31 H3         -6.7933    3.1731  -12.3919 H         1 <0>         0.4539
     32 C23        -5.1557    4.3887  -11.9328 C.ar      1 <0>         0.0857
     33 C24        -3.8817    4.0344  -11.4493 C.ar      1 <0>         0.0659
     34 N5         -2.9686    4.9707  -11.2091 N.ar      1 <0>        -0.4505
     35 C25        -3.2247    6.2454  -11.4098 C.ar      1 <0>         0.1734
     36 C26        -4.4588    6.6661  -11.8810 C.ar      1 <0>        -0.1279
     37 C27        -5.4417    5.7321  -12.1561 C.ar      1 <0>         0.0388
     38 N6         -2.5081    2.9668   -8.7643 N.4       1 <0>        -0.6423
     39 H4          1.0042    1.8801    0.0026 H         1 <0>         0.0864
     40 H5         -0.5455    1.8639   -0.8728 H         1 <0>         0.0788
     41 H6         -0.5286    1.8543    0.9071 H         1 <0>         0.0839
     42 H7         -0.0187    0.4068   -2.9262 H         1 <0>         0.1296
     43 H8          0.0369   -3.8138   -3.6613 H         1 <0>         0.1338
     44 H9          0.0543   -4.2606   -1.2666 H         1 <0>         0.1355
     45 H10        -1.6631   -0.0432   -4.8469 H         1 <0>         0.1494
     46 H11         0.0672   -0.8505   -8.6745 H         1 <0>         0.1563
     47 H12         2.2173   -4.5988   -6.7565 H         1 <0>         0.1555
     48 H13         3.9220   -5.6053   -5.0401 H         1 <0>         0.2094
     49 H14         2.3861   -2.0877   -3.2379 H         1 <0>         0.2039
     50 H15        -0.7153    1.0452   -9.1021 H         1 <0>         0.0941
     51 H16        -1.8474   -0.3095   -9.3285 H         1 <0>         0.1201
     52 H17        -1.8095    2.1358  -11.1813 H         1 <0>         0.1083
     53 H18        -2.8659    0.7056  -11.2639 H         1 <0>         0.1482
     54 H19        -5.4331    1.1258  -11.7305 H         1 <0>         0.2165
     55 H20        -2.4589    6.9783  -11.2030 H         1 <0>         0.2220
     56 H21        -4.6496    7.7173  -12.0393 H         1 <0>         0.2004
     57 H22        -6.4103    6.0387  -12.5224 H         1 <0>         0.1843
     58 H23        -2.5211    2.9182   -7.7566 H         1 <0>         0.4545
     59 H24        -1.6021    3.2853   -9.0740 H         1 <0>         0.4288
     60 H25        -3.2171    3.6119   -9.0792 H         1 <0>         0.4210
     61 H26        -2.0952    4.7083  -10.8787 H         1 <0>         0.4350
@<TRIPOS>BOND
     1    1    2 1
     2    1   39 1
     3    1   40 1
     4    1   41 1
     5    2   11 2
     6    2    3 1
     7    3    8 ar
     8    3    4 ar
     9    4    5 ar
    10    4   42 1
    11    5    6 ar
    12    5   12 1
    13    6    7 ar
    14    6   43 1
    15    7    8 ar
    16    7   44 1
    17    8    9 1
    18    9   10 1
    19    9   11 1
    20   12   17 ar
    21   12   13 ar
    22   13   14 ar
    23   13   45 1
    24   14   15 ar
    25   14   23 1
    26   15   16 ar
    27   15   46 1
    28   16   17 ar
    29   17   18 1
    30   18   22 2
    31   18   19 1
    32   19   20 2
    33   19   47 1
    34   20   21 1
    35   20   48 1
    36   21   22 1
    37   22   49 1
    38   23   24 1
    39   24   25 1
    40   24   50 1
    41   24   51 1
    42   25   26 1
    43   25   27 1
    44   25   38 1
    45   27   28 1
    46   27   52 1
    47   27   53 1
    48   28   33 1
    49   28   29 2
    50   29   30 1
    51   29   54 1
    52   30   31 1
    53   30   32 1
    54   32   37 ar
    55   32   33 ar
    56   33   34 ar
    57   34   35 ar
    58   34   61 1
    59   35   36 ar
    60   35   55 1
    61   36   37 ar
    62   36   56 1
    63   37   57 1
    64   38   58 1
    65   38   59 1
    66   38   60 1
@<TRIPOS>MOLECULE
CHEMBL227325
   53    57     0     0     0
SMALL
USER_CHARGES

@<TRIPOS>ATOM
      1 C1         -0.0184    1.5028    0.0103 C.3       1 <0>        -0.0807
      2 C2          0.0021   -0.0041    0.0020 C.2       1 <0>         0.1088
      3 C3          0.0083   -0.8581   -1.1820 C.ar      1 <0>        -0.1763
      4 C4         -0.0019   -0.6082   -2.5573 C.ar      1 <0>        -0.0083
      5 C5          0.0079   -1.6738   -3.4431 C.ar      1 <0>        -0.1062
      6 C6          0.0279   -2.9891   -2.9631 C.ar      1 <0>        -0.0533
      7 C7          0.0380   -3.2410   -1.6234 C.ar      1 <0>        -0.1371
      8 C8          0.0285   -2.1860   -0.7124 C.ar      1 <0>         0.1440
      9 N1          0.0337   -2.1193    0.6566 N.pl3     1 <0>        -0.5045
     10 H1          0.0468   -2.8812    1.2569 H         1 <0>         0.4444
     11 N2          0.0230   -0.7772    1.0497 N.2       1 <0>        -0.2435
     12 C9         -0.0034   -1.4202   -4.9053 C.ar      1 <0>        -0.0271
     13 C10         0.0004   -2.4846   -5.8096 C.ar      1 <0>        -0.1014
     14 C11        -0.0110   -2.1940   -7.1677 C.ar      1 <0>         0.0699
     15 C12        -0.0257   -0.8671   -7.5756 C.ar      1 <0>         0.0161
     16 N3         -0.0289    0.1132   -6.6940 N.ar      1 <0>        -0.4369
     17 C13        -0.0238   -0.1167   -5.3969 C.ar      1 <0>         0.0813
     18 O1         -0.0074   -3.1961   -8.0859 O.3       1 <0>        -0.3229
     19 C14        -0.0198   -2.8144   -9.4629 C.3       1 <0>         0.0272
     20 C15        -0.0136   -4.0682  -10.3397 C.3       1 <0>         0.0420
     21 H2          0.8359   -4.6958  -10.0703 H         1 <0>         0.1574
     22 C16         0.0989   -3.6615  -11.8104 C.3       1 <0>        -0.0912
     23 C17         0.2286   -4.8962  -12.6646 C.ar      1 <0>        -0.1249
     24 C18         1.4801   -5.4125  -12.9452 C.ar      1 <0>        -0.0873
     25 C19         1.6042   -6.5451  -13.7278 C.ar      1 <0>        -0.0916
     26 C20         0.4735   -7.1658  -14.2336 C.ar      1 <0>         0.0544
     27 C21        -0.7872   -6.6457  -13.9510 C.ar      1 <0>         0.0450
     28 C22        -0.9043   -5.5135  -13.1611 C.ar      1 <0>        -0.1240
     29 O2         -1.7276   -7.4275  -14.5573 O.3       1 <0>        -0.3044
     30 C23        -1.0130   -8.1902  -15.5477 C.3       1 <0>         0.2118
     31 O3          0.3229   -8.2735  -15.0169 O.3       1 <0>        -0.3001
     32 N4         -1.2605   -4.8167  -10.1327 N.4       1 <0>        -0.6376
     33 H3          1.0042    1.8801    0.0026 H         1 <0>         0.0878
     34 H4         -0.5455    1.8639   -0.8728 H         1 <0>         0.0842
     35 H5         -0.5286    1.8543    0.9071 H         1 <0>         0.0843
     36 H6         -0.0177    0.4067   -2.9264 H         1 <0>         0.1366
     37 H7          0.0350   -3.8127   -3.6617 H         1 <0>         0.1317
     38 H8          0.0531   -4.2604   -1.2670 H         1 <0>         0.1332
     39 H9          0.0123   -3.5071   -5.4619 H         1 <0>         0.1476
     40 H10        -0.0343   -0.6345   -8.6302 H         1 <0>         0.1568
     41 H11        -0.0314    0.7142   -4.7071 H         1 <0>         0.1668
     42 H12        -0.9167   -2.2306   -9.6700 H         1 <0>         0.0932
     43 H13         0.8631   -2.2138   -9.6814 H         1 <0>         0.1153
     44 H14        -0.7936   -3.1088  -12.1038 H         1 <0>         0.1068
     45 H15         0.9777   -3.0313  -11.9469 H         1 <0>         0.1307
     46 H16         2.3626   -4.9295  -12.5524 H         1 <0>         0.1474
     47 H17         2.5830   -6.9463  -13.9454 H         1 <0>         0.1472
     48 H18        -1.8808   -5.1106  -12.9366 H         1 <0>         0.1363
     49 H19        -1.4466   -9.1849  -15.6515 H         1 <0>         0.1432
     50 H20        -1.0128   -7.6696  -16.5053 H         1 <0>         0.0960
     51 H21        -1.2564   -5.6436  -10.7110 H         1 <0>         0.4364
     52 H22        -1.3347   -5.0850   -9.1628 H         1 <0>         0.4429
     53 H23        -2.0469   -4.2358  -10.3821 H         1 <0>         0.4328
@<TRIPOS>BOND
     1    1    2 1
     2    1   33 1
     3    1   34 1
     4    1   35 1
     5    2   11 2
     6    2    3 1
     7    3    8 ar
     8    3    4 ar
     9    4    5 ar
    10    4   36 1
    11    5    6 ar
    12    5   12 1
    13    6    7 ar
    14    6   37 1
    15    7    8 ar
    16    7   38 1
    17    8    9 1
    18    9   10 1
    19    9   11 1
    20   12   17 ar
    21   12   13 ar
    22   13   14 ar
    23   13   39 1
    24   14   15 ar
    25   14   18 1
    26   15   16 ar
    27   15   40 1
    28   16   17 ar
    29   17   41 1
    30   18   19 1
    31   19   20 1
    32   19   42 1
    33   19   43 1
    34   20   21 1
    35   20   22 1
    36   20   32 1
    37   22   23 1
    38   22   44 1
    39   22   45 1
    40   23   28 ar
    41   23   24 ar
    42   24   25 ar
    43   24   46 1
    44   25   26 ar
    45   25   47 1
    46   26   31 1
    47   26   27 ar
    48   27   28 ar
    49   27   29 1
    50   28   48 1
    51   29   30 1
    52   30   31 1
    53   30   49 1
    54   30   50 1
    55   32   51 1
    56   32   52 1
    57   32   53 1
@<TRIPOS>MOLECULE
CHEMBL227326
   53    57     0     0     0
SMALL
USER_CHARGES

@<TRIPOS>ATOM
      1 C1         -0.0184    1.5028    0.0103 C.3       1 <0>        -0.0807
      2 C2          0.0021   -0.0041    0.0020 C.2       1 <0>         0.1088
      3 C3          0.0083   -0.8581   -1.1820 C.ar      1 <0>        -0.1763
      4 C4         -0.0019   -0.6082   -2.5573 C.ar      1 <0>        -0.0082
      5 C5          0.0079   -1.6738   -3.4431 C.ar      1 <0>        -0.1063
      6 C6          0.0279   -2.9891   -2.9631 C.ar      1 <0>        -0.0534
      7 C7          0.0380   -3.2410   -1.6234 C.ar      1 <0>        -0.1371
      8 C8          0.0285   -2.1860   -0.7124 C.ar      1 <0>         0.1441
      9 N1          0.0337   -2.1193    0.6566 N.pl3     1 <0>        -0.5044
     10 H1          0.0468   -2.8812    1.2569 H         1 <0>         0.4444
     11 N2          0.0230   -0.7772    1.0497 N.2       1 <0>        -0.2435
     12 C9         -0.0034   -1.4202   -4.9053 C.ar      1 <0>        -0.0269
     13 C10         0.0004   -2.4846   -5.8096 C.ar      1 <0>        -0.1011
     14 C11        -0.0110   -2.1940   -7.1677 C.ar      1 <0>         0.0695
     15 C12        -0.0257   -0.8671   -7.5756 C.ar      1 <0>         0.0163
     16 N3         -0.0289    0.1132   -6.6940 N.ar      1 <0>        -0.4366
     17 C13        -0.0238   -0.1167   -5.3969 C.ar      1 <0>         0.0816
     18 O1         -0.0074   -3.1961   -8.0859 O.3       1 <0>        -0.3225
     19 C14        -0.0198   -2.8144   -9.4629 C.3       1 <0>         0.0284
     20 C15        -0.0136   -4.0682  -10.3397 C.3       1 <0>         0.0422
     21 H2          0.8359   -4.6958  -10.0703 H         1 <0>         0.1595
     22 C16         0.0989   -3.6615  -11.8104 C.3       1 <0>        -0.0993
     23 C17         0.2286   -4.8962  -12.6646 C.ar      1 <0>        -0.0821
     24 C18         1.4807   -5.3541  -13.0318 C.ar      1 <0>        -0.0858
     25 C19         1.6035   -6.4861  -13.8151 C.ar      1 <0>        -0.0774
     26 C20         0.4748   -7.1661  -14.2345 C.ar      1 <0>        -0.0680
     27 C21        -0.7825   -6.7133  -13.8705 C.ar      1 <0>         0.0473
     28 C22        -0.9061   -5.5752  -13.0766 C.ar      1 <0>        -0.0084
     29 O2         -2.2322   -5.3412  -12.8532 O.3       1 <0>        -0.3143
     30 C23        -2.9316   -6.1114  -13.8486 C.3       1 <0>         0.5800
     31 O3         -2.0313   -7.1904  -14.1463 O.3       1 <0>        -0.2771
     32 F1         -4.1391   -6.5970  -13.3355 F         1 <0>        -0.1069
     33 F2         -3.1570   -5.3430  -14.9957 F         1 <0>        -0.1418
     34 N4         -1.2605   -4.8167  -10.1327 N.4       1 <0>        -0.6364
     35 H3          1.0042    1.8801    0.0026 H         1 <0>         0.0878
     36 H4         -0.5455    1.8639   -0.8728 H         1 <0>         0.0842
     37 H5         -0.5286    1.8543    0.9071 H         1 <0>         0.0843
     38 H6         -0.0177    0.4067   -2.9264 H         1 <0>         0.1366
     39 H7          0.0350   -3.8127   -3.6617 H         1 <0>         0.1316
     40 H8          0.0531   -4.2604   -1.2670 H         1 <0>         0.1332
     41 H9          0.0123   -3.5071   -5.4619 H         1 <0>         0.1477
     42 H10        -0.0343   -0.6345   -8.6302 H         1 <0>         0.1567
     43 H11        -0.0314    0.7142   -4.7071 H         1 <0>         0.1670
     44 H12        -0.9167   -2.2306   -9.6700 H         1 <0>         0.0937
     45 H13         0.8631   -2.2138   -9.6814 H         1 <0>         0.1168
     46 H14        -0.7936   -3.1088  -12.1038 H         1 <0>         0.1102
     47 H15         0.9777   -3.0313  -11.9469 H         1 <0>         0.1377
     48 H16         2.3645   -4.8257  -12.7062 H         1 <0>         0.1576
     49 H17         2.5830   -6.8402  -14.1005 H         1 <0>         0.1597
     50 H18         0.5737   -8.0505  -14.8464 H         1 <0>         0.1563
     51 H19        -1.3347   -5.0850   -9.1628 H         1 <0>         0.4433
     52 H20        -2.0469   -4.2358  -10.3821 H         1 <0>         0.4351
     53 H21        -1.2564   -5.6436  -10.7110 H         1 <0>         0.4328
@<TRIPOS>BOND
     1    1    2 1
     2    1   35 1
     3    1   36 1
     4    1   37 1
     5    2   11 2
     6    2    3 1
     7    3    8 ar
     8    3    4 ar
     9    4    5 ar
    10    4   38 1
    11    5    6 ar
    12    5   12 1
    13    6    7 ar
    14    6   39 1
    15    7    8 ar
    16    7   40 1
    17    8    9 1
    18    9   10 1
    19    9   11 1
    20   12   17 ar
    21   12   13 ar
    22   13   14 ar
    23   13   41 1
    24   14   15 ar
    25   14   18 1
    26   15   16 ar
    27   15   42 1
    28   16   17 ar
    29   17   43 1
    30   18   19 1
    31   19   20 1
    32   19   44 1
    33   19   45 1
    34   20   21 1
    35   20   22 1
    36   20   34 1
    37   22   23 1
    38   22   46 1
    39   22   47 1
    40   23   28 ar
    41   23   24 ar
    42   24   25 ar
    43   24   48 1
    44   25   26 ar
    45   25   49 1
    46   26   27 ar
    47   26   50 1
    48   27   31 1
    49   27   28 ar
    50   28   29 1
    51   29   30 1
    52   30   31 1
    53   30   32 1
    54   30   33 1
    55   34   51 1
    56   34   52 1
    57   34   53 1
@<TRIPOS>MOLECULE
CHEMBL581848
   53    57     0     0     0
SMALL
USER_CHARGES

@<TRIPOS>ATOM
      1 C1         -0.0165    1.3620    0.0095 C.ar      1 <0>        -0.1189
      2 C2          1.1697    2.0834    0.0021 C.ar      1 <0>        -0.0931
      3 C3          2.3856    1.4362   -0.0134 C.ar      1 <0>        -0.1108
      4 C4          2.4281    0.0456   -0.0212 C.ar      1 <0>         0.0986
      5 C5          1.2234   -0.6807   -0.0132 C.ar      1 <0>        -0.1172
      6 C6          0.0021   -0.0041    0.0020 C.ar      1 <0>        -0.1143
      7 C7          1.6036   -2.0953   -0.0245 C.2       1 <0>        -0.2381
      8 C8          2.9451   -2.1410   -0.0380 C.2       1 <0>         0.1043
      9 N1          3.4551   -0.8713   -0.0363 N.pl3     1 <0>        -0.5842
     10 H1          4.3995   -0.6501   -0.0442 H         1 <0>         0.4266
     11 C9          0.6664   -3.2754   -0.0210 C.3       1 <0>        -0.0554
     12 C10         0.2361   -3.5891   -1.4554 C.3       1 <0>         0.0435
     13 H2          1.1200   -3.7379   -2.0756 H         1 <0>         0.1530
     14 C11        -0.6144   -4.8610   -1.4661 C.3       1 <0>         0.0259
     15 O1         -0.9189   -5.2190   -2.8156 O.3       1 <0>        -0.3219
     16 C12        -1.6731   -6.3340   -3.0030 C.ar      1 <0>         0.0676
     17 C13        -2.0062   -6.7501   -4.2856 C.ar      1 <0>        -0.0871
     18 C14        -2.7833   -7.9032   -4.4262 C.ar      1 <0>        -0.0441
     19 C15        -3.1913   -8.5866   -3.2807 C.ar      1 <0>         0.0922
     20 N2         -2.8520   -8.1550   -2.0838 N.ar      1 <0>        -0.4386
     21 C16        -2.1151   -7.0742   -1.9151 C.ar      1 <0>         0.0253
     22 C17        -3.1681   -8.3918   -5.7709 C.ar      1 <0>        -0.0625
     23 C18        -3.7271   -7.5279   -6.6977 C.ar      1 <0>        -0.0680
     24 C19        -4.0908   -7.9802   -7.9610 C.ar      1 <0>        -0.1257
     25 C20        -3.9094   -9.2809   -8.3255 C.ar      1 <0>        -0.0643
     26 C21        -3.3456  -10.1904   -7.4171 C.ar      1 <0>        -0.1155
     27 C22        -2.9644   -9.7431   -6.1262 C.ar      1 <0>        -0.0032
     28 C23        -2.3983  -10.6729   -5.2396 C.ar      1 <0>        -0.1705
     29 C24        -2.2347  -11.9597   -5.6573 C.ar      1 <0>         0.0927
     30 N3         -2.5940  -12.3517   -6.8717 N.ar      1 <0>        -0.4854
     31 C25        -3.1394  -11.5401   -7.7474 C.ar      1 <0>         0.1572
     32 N4         -0.5518   -2.4687   -1.9863 N.4       1 <0>        -0.6362
     33 H3         -0.9613    1.8849    0.0259 H         1 <0>         0.1313
     34 H4          1.1388    3.1630    0.0081 H         1 <0>         0.1354
     35 H5          3.3028    2.0064   -0.0198 H         1 <0>         0.1296
     36 H6         -0.9246   -0.5587    0.0082 H         1 <0>         0.1147
     37 H7          3.5346   -3.0459   -0.0490 H         1 <0>         0.1792
     38 H8          1.1742   -4.1414    0.4036 H         1 <0>         0.1218
     39 H9         -0.2127   -3.0396    0.5787 H         1 <0>         0.0999
     40 H10        -0.0618   -5.6715   -0.9910 H         1 <0>         0.1141
     41 H11        -1.5405   -4.6834   -0.9195 H         1 <0>         0.0924
     42 H12        -1.6737   -6.1969   -5.1515 H         1 <0>         0.1481
     43 H13        -3.7921   -9.4789   -3.3764 H         1 <0>         0.1672
     44 H14        -1.8555   -6.7580   -0.9156 H         1 <0>         0.1595
     45 H15        -3.8825   -6.4917   -6.4361 H         1 <0>         0.1292
     46 H16        -4.5257   -7.2879   -8.6668 H         1 <0>         0.1350
     47 H17        -4.1993   -9.6114   -9.3119 H         1 <0>         0.1405
     48 H18        -2.0981  -10.3741   -4.2461 H         1 <0>         0.1366
     49 H19        -1.7999  -12.6802   -4.9804 H         1 <0>         0.1571
     50 H20        -3.4171  -11.9064   -8.7247 H         1 <0>         0.1693
     51 H21         0.0090   -1.6300   -1.9793 H         1 <0>         0.4383
     52 H22        -0.8356   -2.6756   -2.9322 H         1 <0>         0.4391
     53 H23        -1.3700   -2.3311   -1.4122 H         1 <0>         0.4299
@<TRIPOS>BOND
     1    1    6 ar
     2    1    2 ar
     3    1   33 1
     4    2    3 ar
     5    2   34 1
     6    3    4 ar
     7    3   35 1
     8    4    9 1
     9    4    5 ar
    10    5    6 ar
    11    5    7 1
    12    6   36 1
    13    7    8 2
    14    7   11 1
    15    8    9 1
    16    8   37 1
    17    9   10 1
    18   11   12 1
    19   11   38 1
    20   11   39 1
    21   12   13 1
    22   12   14 1
    23   12   32 1
    24   14   15 1
    25   14   40 1
    26   14   41 1
    27   15   16 1
    28   16   21 ar
    29   16   17 ar
    30   17   18 ar
    31   17   42 1
    32   18   19 ar
    33   18   22 1
    34   19   20 ar
    35   19   43 1
    36   20   21 ar
    37   21   44 1
    38   22   27 ar
    39   22   23 ar
    40   23   24 ar
    41   23   45 1
    42   24   25 ar
    43   24   46 1
    44   25   26 ar
    45   25   47 1
    46   26   31 ar
    47   26   27 ar
    48   27   28 ar
    49   28   29 ar
    50   28   48 1
    51   29   30 ar
    52   29   49 1
    53   30   31 ar
    54   31   50 1
    55   32   51 1
    56   32   52 1
    57   32   53 1
@<TRIPOS>MOLECULE
CHEMBL574764
   61    66     0     0     0
SMALL
USER_CHARGES

@<TRIPOS>ATOM
      1 C1         -0.0167    1.3791    0.0096 C.ar      1 <0>        -0.1033
      2 C2          1.1686    2.0925    0.0021 C.ar      1 <0>        -0.1175
      3 C3          2.3774    1.4270   -0.0135 C.ar      1 <0>        -0.0854
      4 C4          2.4026    0.0331   -0.0212 C.ar      1 <0>        -0.0282
      5 C5          1.2048   -0.6804   -0.0131 C.ar      1 <0>        -0.0954
      6 C6          0.0021   -0.0041    0.0020 C.ar      1 <0>        -0.1184
      7 C7          3.6977   -0.6875   -0.0384 C.2       1 <0>         0.1493
      8 C8          3.9896   -1.9629    0.6257 C.ar      1 <0>        -0.1633
      9 C9          3.2382   -2.8373    1.4119 C.ar      1 <0>        -0.0119
     10 C10         3.8283   -3.9930    1.9004 C.ar      1 <0>        -0.1016
     11 C11         5.1669   -4.2783    1.6063 C.ar      1 <0>        -0.0536
     12 C12         5.9067   -3.4283    0.8388 C.ar      1 <0>        -0.1348
     13 C13         5.3344   -2.2603    0.3366 C.ar      1 <0>         0.1436
     14 N1          5.8097   -1.2369   -0.4430 N.pl3     1 <0>        -0.4999
     15 H1          6.7110   -1.1722   -0.7957 H         1 <0>         0.4460
     16 N2          4.7895   -0.3044   -0.6545 N.2       1 <0>        -0.2302
     17 C14         3.0388   -4.9297    2.7379 C.ar      1 <0>        -0.0287
     18 C15         3.6224   -6.0946    3.2414 C.ar      1 <0>        -0.1010
     19 C16         2.8408   -6.9381    4.0204 C.ar      1 <0>         0.0707
     20 C17         1.5183   -6.5971    4.2693 C.ar      1 <0>         0.0167
     21 N3          0.9996   -5.4892    3.7774 N.ar      1 <0>        -0.4362
     22 C18         1.7059   -4.6579    3.0388 C.ar      1 <0>         0.0811
     23 O1          3.3641   -8.0833    4.5322 O.3       1 <0>        -0.3230
     24 C19         2.4953   -8.8968    5.3231 C.3       1 <0>         0.0265
     25 C20         3.2555  -10.1328    5.8082 C.3       1 <0>         0.0434
     26 H2          3.6816  -10.6564    4.9524 H         1 <0>         0.1528
     27 C21         2.2942  -11.0644    6.5492 C.3       1 <0>        -0.0555
     28 C22         3.0128  -12.3362    6.9198 C.2       1 <0>        -0.2375
     29 C23         3.0245  -13.4803    6.2178 C.2       1 <0>         0.1039
     30 N4          3.7833  -14.4171    6.8650 N.pl3     1 <0>        -0.5846
     31 H3          3.9400  -15.3213    6.5506 H         1 <0>         0.4265
     32 C24         4.2914  -13.8852    8.0289 C.ar      1 <0>         0.0987
     33 C25         3.8363  -12.5563    8.1112 C.ar      1 <0>        -0.1171
     34 C26         4.2035  -11.7602    9.1974 C.ar      1 <0>        -0.1140
     35 C27         5.0074  -12.2756   10.1751 C.ar      1 <0>        -0.1191
     36 C28         5.4623  -13.5844   10.0966 C.ar      1 <0>        -0.0932
     37 C29         5.1045  -14.3905    9.0379 C.ar      1 <0>        -0.1110
     38 N5          4.3339   -9.7194    6.7160 N.4       1 <0>        -0.6362
     39 H4         -0.9603    1.9042    0.0260 H         1 <0>         0.1283
     40 H5          1.1478    3.1722    0.0082 H         1 <0>         0.1301
     41 H6          3.3021    1.9850   -0.0200 H         1 <0>         0.1285
     42 H7          1.2182   -1.7603   -0.0194 H         1 <0>         0.1255
     43 H8         -0.9264   -0.5557    0.0083 H         1 <0>         0.1302
     44 H9          2.2057   -2.6156    1.6382 H         1 <0>         0.1364
     45 H10         5.6183   -5.1807    1.9915 H         1 <0>         0.1330
     46 H11         6.9385   -3.6601    0.6196 H         1 <0>         0.1346
     47 H12         4.6542   -6.3334    3.0303 H         1 <0>         0.1476
     48 H13         0.9054   -7.2488    4.8743 H         1 <0>         0.1572
     49 H14         1.2453   -3.7580    2.6587 H         1 <0>         0.1658
     50 H15         2.1449   -8.3252    6.1825 H         1 <0>         0.0919
     51 H16         1.6416   -9.2083    4.7213 H         1 <0>         0.1138
     52 H17         1.9364  -10.5725    7.4537 H         1 <0>         0.0999
     53 H18         1.4475  -11.3002    5.9046 H         1 <0>         0.1218
     54 H19         2.5108  -13.6381    5.2810 H         1 <0>         0.1791
     55 H20         3.8538  -10.7406    9.2648 H         1 <0>         0.1149
     56 H21         5.2912  -11.6593   11.0154 H         1 <0>         0.1312
     57 H22         6.0976  -13.9772   10.8767 H         1 <0>         0.1352
     58 H23         5.4646  -15.4074    8.9852 H         1 <0>         0.1294
     59 H24         3.9395   -9.2348    7.5082 H         1 <0>         0.4299
     60 H25         4.8352  -10.5346    7.0359 H         1 <0>         0.4379
     61 H26         4.9679   -9.1051    6.2273 H         1 <0>         0.4392
@<TRIPOS>BOND
     1    1    6 ar
     2    1    2 ar
     3    1   39 1
     4    2    3 ar
     5    2   40 1
     6    3    4 ar
     7    3   41 1
     8    4    5 ar
     9    4    7 1
    10    5    6 ar
    11    5   42 1
    12    6   43 1
    13    7   16 2
    14    7    8 1
    15    8   13 ar
    16    8    9 ar
    17    9   10 ar
    18    9   44 1
    19   10   11 ar
    20   10   17 1
    21   11   12 ar
    22   11   45 1
    23   12   13 ar
    24   12   46 1
    25   13   14 1
    26   14   15 1
    27   14   16 1
    28   17   22 ar
    29   17   18 ar
    30   18   19 ar
    31   18   47 1
    32   19   20 ar
    33   19   23 1
    34   20   21 ar
    35   20   48 1
    36   21   22 ar
    37   22   49 1
    38   23   24 1
    39   24   25 1
    40   24   50 1
    41   24   51 1
    42   25   26 1
    43   25   27 1
    44   25   38 1
    45   27   28 1
    46   27   52 1
    47   27   53 1
    48   28   33 1
    49   28   29 2
    50   29   30 1
    51   29   54 1
    52   30   31 1
    53   30   32 1
    54   32   37 ar
    55   32   33 ar
    56   33   34 ar
    57   34   35 ar
    58   34   55 1
    59   35   36 ar
    60   35   56 1
    61   36   37 ar
    62   36   57 1
    63   37   58 1
    64   38   59 1
    65   38   60 1
    66   38   61 1
@<TRIPOS>MOLECULE
CHEMBL273160
   71    77     0     0     0
SMALL
USER_CHARGES

@<TRIPOS>ATOM
      1 C1         -0.3252    0.5523   -0.9130 C.ar      1 <0>        -0.1092
      2 C2          0.7361    1.4389   -0.8697 C.ar      1 <0>        -0.1179
      3 C3          2.0186    0.9744   -0.6621 C.ar      1 <0>        -0.0787
      4 C4          2.2441   -0.3921   -0.4957 C.ar      1 <0>        -0.0337
      5 C5          1.1699   -1.2809   -0.5404 C.ar      1 <0>        -0.0942
      6 C6         -0.1081   -0.8041   -0.7487 C.ar      1 <0>        -0.1268
      7 C7          3.6182   -0.8972   -0.2729 C.ar      1 <0>         0.1397
      8 C8          3.8742   -1.8979    0.7625 C.ar      1 <0>         0.1125
      9 N1          5.1025   -2.3416    0.9523 N.ar      1 <0>        -0.3981
     10 C9          6.1058   -1.8755    0.1988 C.ar      1 <0>         0.0733
     11 C10         7.4153   -2.3446    0.3965 C.ar      1 <0>        -0.0551
     12 C11         8.4447   -1.8534   -0.3913 C.ar      1 <0>        -0.1016
     13 C12         8.1848   -0.8905   -1.3840 C.ar      1 <0>        -0.0417
     14 C13         6.9265   -0.4266   -1.5886 C.ar      1 <0>        -0.1111
     15 C14         5.8580   -0.9055   -0.8056 C.ar      1 <0>         0.0856
     16 N2          4.6173   -0.4502   -1.0120 N.ar      1 <0>        -0.4101
     17 C15         9.8212   -2.3429   -0.1874 C.2       1 <0>         0.5181
     18 O1         10.0514   -3.1794    0.6745 O.co2     1 <0>        -0.6736
     19 O2         10.7323   -1.9121   -0.8803 O.co2     1 <0>        -0.6720
     20 C16         2.7606   -2.4103    1.5942 C.ar      1 <0>         0.0172
     21 C17         1.8206   -1.5281    2.1262 C.ar      1 <0>        -0.0835
     22 C18         0.7853   -2.0114    2.8997 C.ar      1 <0>        -0.0965
     23 C19         0.6786   -3.3682    3.1480 C.ar      1 <0>        -0.1626
     24 C20         1.6080   -4.2484    2.6231 C.ar      1 <0>        -0.0902
     25 C21         2.6447   -3.7776    1.8436 C.ar      1 <0>        -0.0822
     26 C22        -0.4543   -3.8896    3.9941 C.3       1 <0>         0.0467
     27 N3         -1.6026   -4.2053    3.1341 N.4       1 <0>        -0.3854
     28 C23        -2.1037   -2.9714    2.5169 C.3       1 <0>        -0.0075
     29 C24        -3.2482   -3.3047    1.5575 C.3       1 <0>        -0.1648
     30 C25        -4.3787   -3.9833    2.3365 C.3       1 <0>         0.1607
     31 C26        -3.8270   -5.2285    3.0367 C.3       1 <0>        -0.1665
     32 C27        -2.6611   -4.8238    3.9413 C.3       1 <0>         0.0013
     33 N4         -5.4455   -4.3736    1.4113 N.am      1 <0>        -0.5370
     34 C28        -6.7652   -3.9304    1.4553 C.ar      1 <0>         0.0814
     35 C29        -7.4508   -3.0646    2.2938 C.ar      1 <0>        -0.1043
     36 C30        -8.7922   -2.8170    2.0781 C.ar      1 <0>        -0.1038
     37 C31        -9.4553   -3.4299    1.0287 C.ar      1 <0>        -0.1006
     38 C32        -8.7810   -4.2941    0.1886 C.ar      1 <0>        -0.1009
     39 C33        -7.4339   -4.5482    0.3966 C.ar      1 <0>         0.0918
     40 N5         -6.4997   -5.3477   -0.2578 N.am      1 <0>        -0.6402
     41 H1         -6.6717   -5.9007   -1.0359 H         1 <0>         0.4392
     42 C34        -5.3159   -5.2174    0.3702 C.2       1 <0>         0.6853
     43 O3         -4.2860   -5.7797    0.0479 O.2       1 <0>        -0.5547
     44 H2         -1.3278    0.9211   -1.0714 H         1 <0>         0.1231
     45 H3          0.5603    2.4966   -0.9991 H         1 <0>         0.1284
     46 H4          2.8463    1.6674   -0.6288 H         1 <0>         0.1299
     47 H5          1.3381   -2.3399   -0.4122 H         1 <0>         0.1202
     48 H6         -0.9406   -1.4912   -0.7835 H         1 <0>         0.1198
     49 H7          7.6187   -3.0830    1.1579 H         1 <0>         0.1492
     50 H8          8.9967   -0.5162   -1.9899 H         1 <0>         0.1480
     51 H9          6.7434    0.3128   -2.3543 H         1 <0>         0.1386
     52 H10         1.9030   -0.4686    1.9333 H         1 <0>         0.1371
     53 H11         0.0569   -1.3292    3.3125 H         1 <0>         0.1331
     54 H12         1.5195   -5.3065    2.8203 H         1 <0>         0.1345
     55 H13         3.3671   -4.4661    1.4307 H         1 <0>         0.1410
     56 H14        -0.1329   -4.7907    4.5163 H         1 <0>         0.1384
     57 H15        -0.7430   -3.1312    4.7219 H         1 <0>         0.1362
     58 H16        -2.4659   -2.2981    3.2939 H         1 <0>         0.1319
     59 H17        -1.2972   -2.4879    1.9656 H         1 <0>         0.1420
     60 H18        -3.6200   -2.3871    1.1017 H         1 <0>         0.1167
     61 H19        -2.8870   -3.9777    0.7799 H         1 <0>         0.1072
     62 H20        -4.7747   -3.2921    3.0805 H         1 <0>         0.1145
     63 H21        -4.6126   -5.6859    3.6382 H         1 <0>         0.1163
     64 H22        -3.4778   -5.9414    2.2898 H         1 <0>         0.1073
     65 H23        -2.2661   -5.7080    4.4416 H         1 <0>         0.1379
     66 H24        -3.0114   -4.1111    4.6879 H         1 <0>         0.1324
     67 H25        -6.9369   -2.5852    3.1139 H         1 <0>         0.1291
     68 H26        -9.3263   -2.1427    2.7311 H         1 <0>         0.1377
     69 H27       -10.5045   -3.2317    0.8665 H         1 <0>         0.1387
     70 H28        -9.3018   -4.7710   -0.6286 H         1 <0>         0.1358
     71 H29        -1.3138   -4.8472    2.4112 H         1 <0>         0.4265
@<TRIPOS>BOND
     1    1    6 ar
     2    1    2 ar
     3    1   44 1
     4    2    3 ar
     5    2   45 1
     6    3    4 ar
     7    3   46 1
     8    4    5 ar
     9    4    7 1
    10    5    6 ar
    11    5   47 1
    12    6   48 1
    13    7   16 ar
    14    7    8 ar
    15    8    9 ar
    16    8   20 1
    17    9   10 ar
    18   10   15 ar
    19   10   11 ar
    20   11   12 ar
    21   11   49 1
    22   12   13 ar
    23   12   17 1
    24   13   14 ar
    25   13   50 1
    26   14   15 ar
    27   14   51 1
    28   15   16 ar
    29   17   18 2
    30   17   19 1
    31   20   25 ar
    32   20   21 ar
    33   21   22 ar
    34   21   52 1
    35   22   23 ar
    36   22   53 1
    37   23   24 ar
    38   23   26 1
    39   24   25 ar
    40   24   54 1
    41   25   55 1
    42   26   27 1
    43   26   56 1
    44   26   57 1
    45   27   32 1
    46   27   28 1
    47   27   71 1
    48   28   29 1
    49   28   58 1
    50   28   59 1
    51   29   30 1
    52   29   60 1
    53   29   61 1
    54   30   31 1
    55   30   33 1
    56   30   62 1
    57   31   32 1
    58   31   63 1
    59   31   64 1
    60   32   65 1
    61   32   66 1
    62   33   42 am
    63   33   34 1
    64   34   39 ar
    65   34   35 ar
    66   35   36 ar
    67   35   67 1
    68   36   37 ar
    69   36   68 1
    70   37   38 ar
    71   37   69 1
    72   38   39 ar
    73   38   70 1
    74   39   40 1
    75   40   41 1
    76   40   42 am
    77   42   43 2
@<TRIPOS>MOLECULE
CHEMBL493359
   47    51     0     0     0
SMALL
USER_CHARGES

@<TRIPOS>ATOM
      1 C1          5.3000   -6.7291   -2.3886 C.ar      1 <0>        -0.1131
      2 C2          4.1121   -6.2713   -1.8500 C.ar      1 <0>        -0.1230
      3 C3          4.0476   -5.0083   -1.2919 C.ar      1 <0>        -0.0968
      4 C4          5.1712   -4.2033   -1.2719 C.ar      1 <0>        -0.0914
      5 C5          6.3594   -4.6615   -1.8097 C.ar      1 <0>        -0.0989
      6 C6          6.4235   -5.9239   -2.3691 C.ar      1 <0>        -0.1236
      7 C7          5.1007   -2.8260   -0.6643 C.3       1 <0>         0.1052
      8 O1          5.4231   -2.9015    0.7258 O.3       1 <0>        -0.3727
      9 C8          5.3853   -1.6423    1.4004 C.3       1 <0>         0.0562
     10 C9          5.7451   -1.8423    2.8740 C.3       1 <0>         0.1240
     11 H1          5.8331   -0.8713    3.3613 H         1 <0>         0.1105
     12 C10         7.0595   -2.5766    2.9754 C.2       1 <0>        -0.1064
     13 C11         7.2753   -3.4874    3.9290 C.2       1 <0>        -0.1444
     14 C12         6.2352   -3.8505    4.9585 C.3       1 <0>         0.0978
     15 H2          5.9639   -4.9040    4.8901 H         1 <0>         0.1562
     16 C13         4.9932   -2.9452    4.8512 C.3       1 <0>         0.0752
     17 H3          4.1322   -3.3997    5.3412 H         1 <0>         0.1576
     18 O2          4.7236   -2.6034    3.5131 O.3       1 <0>        -0.3274
     19 C14         5.4650   -1.6847    5.6104 C.3       1 <0>        -0.2335
     20 C15         6.6407   -2.1787    6.4338 C.2       1 <0>         0.4739
     21 O3          7.3481   -1.4913    7.1316 O.2       1 <0>        -0.4311
     22 O4          6.7742   -3.5285    6.2620 O.3       1 <0>        -0.3181
     23 C16         8.5792   -4.1901    4.0072 C.2       1 <0>         0.4219
     24 O5          8.7696   -5.0128    4.8806 O.2       1 <0>        -0.4011
     25 C17         9.6463   -3.8973    3.0314 C.ar      1 <0>        -0.1207
     26 C18        10.8718   -4.5504    3.0906 C.ar      1 <0>        -0.0640
     27 C19        11.8546   -4.2560    2.1584 C.ar      1 <0>        -0.0938
     28 C20        11.6246   -3.3177    1.1706 C.ar      1 <0>        -0.0976
     29 C21        10.4079   -2.6570    1.0991 C.ar      1 <0>        -0.0617
     30 C22         9.4134   -2.9410    2.0270 C.ar      1 <0>        -0.1252
     31 C23         8.1069   -2.2558    1.9797 C.2       1 <0>         0.4377
     32 O6          7.8905   -1.4247    1.1205 O.2       1 <0>        -0.4130
     33 H4          5.3516   -7.7176   -2.8206 H         1 <0>         0.1230
     34 H5          3.2343   -6.9002   -1.8656 H         1 <0>         0.1241
     35 H6          3.1193   -4.6503   -0.8717 H         1 <0>         0.1234
     36 H7          7.2372   -4.0324   -1.7944 H         1 <0>         0.1204
     37 H8          7.3517   -6.2818   -2.7895 H         1 <0>         0.1230
     38 H9          5.8116   -2.1702   -1.1671 H         1 <0>         0.0602
     39 H10         4.0929   -2.4279   -0.7825 H         1 <0>         0.0602
     40 H11         6.1021   -0.9620    0.9405 H         1 <0>         0.1073
     41 H12         4.3834   -1.2197    1.3251 H         1 <0>         0.0679
     42 H13         5.7852   -0.9132    4.9101 H         1 <0>         0.1229
     43 H14         4.6736   -1.3098    6.2593 H         1 <0>         0.1352
     44 H15        11.0578   -5.2845    3.8606 H         1 <0>         0.1457
     45 H16        12.8069   -4.7634    2.2048 H         1 <0>         0.1413
     46 H17        12.3979   -3.0974    0.4496 H         1 <0>         0.1411
     47 H18        10.2337   -1.9243    0.3251 H         1 <0>         0.1453
@<TRIPOS>BOND
     1    1    6 ar
     2    1    2 ar
     3    1   33 1
     4    2    3 ar
     5    2   34 1
     6    3    4 ar
     7    3   35 1
     8    4    5 ar
     9    4    7 1
    10    5    6 ar
    11    5   36 1
    12    6   37 1
    13    7    8 1
    14    7   38 1
    15    7   39 1
    16    8    9 1
    17    9   10 1
    18    9   40 1
    19    9   41 1
    20   10   11 1
    21   10   18 1
    22   10   12 1
    23   12   31 1
    24   12   13 2
    25   13   14 1
    26   13   23 1
    27   14   15 1
    28   14   22 1
    29   14   16 1
    30   16   17 1
    31   16   18 1
    32   16   19 1
    33   19   20 1
    34   19   42 1
    35   19   43 1
    36   20   21 2
    37   20   22 1
    38   23   24 2
    39   23   25 1
    40   25   30 ar
    41   25   26 ar
    42   26   27 ar
    43   26   44 1
    44   27   28 ar
    45   27   45 1
    46   28   29 ar
    47   28   46 1
    48   29   30 ar
    49   29   47 1
    50   30   31 1
    51   31   32 2
@<TRIPOS>MOLECULE
CHEMBL270388
   65    70     0     0     0
SMALL
USER_CHARGES

@<TRIPOS>ATOM
      1 C1         -0.0167    1.3791    0.0096 C.ar      1 <0>        -0.1044
      2 C2          1.1686    2.0923    0.0021 C.ar      1 <0>        -0.1117
      3 C3          2.3774    1.4267   -0.0134 C.ar      1 <0>        -0.0987
      4 C4          2.4025    0.0330   -0.0211 C.ar      1 <0>        -0.0587
      5 C5          1.2049   -0.6804   -0.0130 C.ar      1 <0>        -0.0956
      6 C6          0.0021   -0.0041    0.0020 C.ar      1 <0>        -0.1218
      7 C7          3.6980   -0.6879   -0.0382 C.ar      1 <0>        -0.0761
      8 C8          4.6835   -0.3486   -0.9624 C.ar      1 <0>        -0.0022
      9 C9          5.8886   -1.0592   -0.9375 C.ar      1 <0>        -0.0401
     10 C10         6.0607   -2.0778    0.0074 C.ar      1 <0>         0.2219
     11 N1          5.1075   -2.3719    0.8657 N.ar      1 <0>        -0.4557
     12 C11         3.9520   -1.7194    0.8811 C.ar      1 <0>         0.2056
     13 C12         2.9165   -2.0873    1.8736 C.ar      1 <0>        -0.0176
     14 C13         2.0864   -1.1062    2.4160 C.ar      1 <0>        -0.0782
     15 C14         1.1234   -1.4553    3.3404 C.ar      1 <0>        -0.1007
     16 C15         0.9801   -2.7752    3.7294 C.ar      1 <0>        -0.1460
     17 C16         1.8005   -3.7528    3.1954 C.ar      1 <0>        -0.0954
     18 C17         2.7632   -3.4172    2.2656 C.ar      1 <0>        -0.0704
     19 C18        -0.0738   -3.1496    4.7395 C.3       1 <0>         0.0424
     20 N2         -1.3259   -3.4744    4.0433 N.4       1 <0>        -0.3850
     21 C19        -1.8332   -2.2746    3.3668 C.3       1 <0>        -0.0070
     22 C20        -3.0936   -2.6263    2.5735 C.3       1 <0>        -0.1648
     23 C21        -4.1603   -3.1632    3.5321 C.3       1 <0>         0.1609
     24 C22        -3.5939   -4.3696    4.2865 C.3       1 <0>        -0.1671
     25 C23        -2.3150   -3.9533    5.0163 C.3       1 <0>         0.0009
     26 N3         -5.3424   -3.5730    2.7699 N.am      1 <0>        -0.5373
     27 C24        -6.6257   -3.0508    2.9127 C.ar      1 <0>         0.0793
     28 C25        -7.1695   -2.0732    3.7321 C.ar      1 <0>        -0.1044
     29 C26        -8.5132   -1.7679    3.6395 C.ar      1 <0>        -0.1027
     30 C27        -9.3195   -2.4340    2.7323 C.ar      1 <0>        -0.0988
     31 C28        -8.7870   -3.4094    1.9124 C.ar      1 <0>        -0.1000
     32 C29        -7.4388   -3.7222    1.9975 C.ar      1 <0>         0.0916
     33 N4         -6.6243   -4.6316    1.3270 N.am      1 <0>        -0.6394
     34 H1         -6.9097   -5.2423    0.6294 H         1 <0>         0.4398
     35 C30        -5.3722   -4.5144    1.8079 C.2       1 <0>         0.6857
     36 O1         -4.4137   -5.1634    1.4325 O.2       1 <0>        -0.5579
     37 Cl1         7.5520   -2.9655    0.0470 Cl        1 <0>         0.0100
     38 C31         6.9326   -0.7487   -1.8671 C.1       1 <0>         0.2359
     39 N5          7.7609   -0.5023   -2.6045 N.1       1 <0>        -0.3604
     40 H2         -0.9603    1.9042    0.0260 H         1 <0>         0.1274
     41 H3          1.1479    3.1721    0.0081 H         1 <0>         0.1319
     42 H4          3.3022    1.9845   -0.0199 H         1 <0>         0.1307
     43 H5          1.2184   -1.7603   -0.0192 H         1 <0>         0.1226
     44 H6         -0.9264   -0.5557    0.0082 H         1 <0>         0.1236
     45 H7          4.5214    0.4422   -1.6799 H         1 <0>         0.1653
     46 H8          2.1976   -0.0755    2.1134 H         1 <0>         0.1450
     47 H9          0.4804   -0.6965    3.7614 H         1 <0>         0.1363
     48 H10         1.6843   -4.7813    3.5035 H         1 <0>         0.1376
     49 H11         3.3996   -4.1820    1.8455 H         1 <0>         0.1444
     50 H12         0.2606   -4.0166    5.3092 H         1 <0>         0.1406
     51 H13        -0.2414   -2.3123    5.4170 H         1 <0>         0.1386
     52 H14        -2.0724   -1.5132    4.1091 H         1 <0>         0.1329
     53 H15        -1.0718   -1.8918    2.6873 H         1 <0>         0.1390
     54 H16        -3.4698   -1.7338    2.0734 H         1 <0>         0.1169
     55 H17        -2.8555   -3.3875    1.8306 H         1 <0>         0.1071
     56 H18        -4.4358   -2.3849    4.2438 H         1 <0>         0.1150
     57 H19        -4.3276   -4.7232    5.0108 H         1 <0>         0.1182
     58 H20        -3.3662   -5.1670    3.5791 H         1 <0>         0.1077
     59 H21        -1.9092   -4.8099    5.5546 H         1 <0>         0.1389
     60 H22        -2.5438   -3.1561    5.7235 H         1 <0>         0.1337
     61 H23        -6.5437   -1.5520    4.4415 H         1 <0>         0.1289
     62 H24        -8.9368   -1.0065    4.2776 H         1 <0>         0.1387
     63 H25       -10.3694   -2.1899    2.6658 H         1 <0>         0.1400
     64 H26        -9.4193   -3.9274    1.2064 H         1 <0>         0.1367
     65 H27        -1.1519   -4.1955    3.3593 H         1 <0>         0.4263
@<TRIPOS>BOND
     1    1    6 ar
     2    1    2 ar
     3    1   40 1
     4    2    3 ar
     5    2   41 1
     6    3    4 ar
     7    3   42 1
     8    4    5 ar
     9    4    7 1
    10    5    6 ar
    11    5   43 1
    12    6   44 1
    13    7   12 ar
    14    7    8 ar
    15    8    9 ar
    16    8   45 1
    17    9   10 ar
    18    9   38 1
    19   10   11 ar
    20   10   37 1
    21   11   12 ar
    22   12   13 1
    23   13   18 ar
    24   13   14 ar
    25   14   15 ar
    26   14   46 1
    27   15   16 ar
    28   15   47 1
    29   16   17 ar
    30   16   19 1
    31   17   18 ar
    32   17   48 1
    33   18   49 1
    34   19   20 1
    35   19   50 1
    36   19   51 1
    37   20   25 1
    38   20   21 1
    39   20   65 1
    40   21   22 1
    41   21   52 1
    42   21   53 1
    43   22   23 1
    44   22   54 1
    45   22   55 1
    46   23   24 1
    47   23   26 1
    48   23   56 1
    49   24   25 1
    50   24   57 1
    51   24   58 1
    52   25   59 1
    53   25   60 1
    54   26   35 am
    55   26   27 1
    56   27   32 ar
    57   27   28 ar
    58   28   29 ar
    59   28   61 1
    60   29   30 ar
    61   29   62 1
    62   30   31 ar
    63   30   63 1
    64   31   32 ar
    65   31   64 1
    66   32   33 1
    67   33   34 1
    68   33   35 am
    69   35   36 2
    70   38   39 3
@<TRIPOS>MOLECULE
CHEMBL470192
   45    48     0     0     0
SMALL
USER_CHARGES

@<TRIPOS>ATOM
      1 C1         -0.0167    1.3781    0.0096 C.ar      1 <0>        -0.0953
      2 C2          1.1709    2.0855    0.0021 C.ar      1 <0>        -0.1097
      3 C3          2.3773    1.4107   -0.0130 C.ar      1 <0>        -0.0946
      4 C4          2.3960    0.0285   -0.0201 C.ar      1 <0>        -0.1227
      5 C5          1.2084   -0.6789   -0.0117 C.ar      1 <0>        -0.1104
      6 C6          0.0021   -0.0041    0.0020 C.ar      1 <0>        -0.1099
      7 C7          3.7112   -0.7071   -0.0376 C.3       1 <0>         0.1716
      8 C8          4.0191   -1.1676   -1.4638 C.3       1 <0>        -0.0183
      9 N1          5.2387   -1.9864   -1.4614 N.4       1 <0>        -0.6340
     10 N2          3.6301   -1.8734    0.8453 N.am      1 <0>        -0.7339
     11 C9          4.7514   -2.3850    1.3907 C.2       1 <0>         0.6112
     12 O1          5.8318   -1.8778    1.1495 O.2       1 <0>        -0.5429
     13 C10         4.6705   -3.5489    2.2718 C.2       1 <0>        -0.2955
     14 C11         5.6938   -4.2168    2.9308 C.2       1 <0>        -0.0265
     15 C12         5.3794   -5.2924    3.7107 C.2       1 <0>        -0.1892
     16 C13         4.0496   -5.6755    3.8140 C.2       1 <0>         0.0114
     17 S1          3.2297   -4.4709    2.7826 S.3       1 <0>         0.1097
     18 C14         3.4633   -6.7885    4.5837 C.2       1 <0>        -0.1377
     19 C15         3.8753   -8.0841    4.5831 C.2       1 <0>         0.1325
     20 N3          3.0873   -8.8176    5.4204 N.pl3     1 <0>        -0.5666
     21 H1          3.1887   -9.7681    5.5851 H         1 <0>         0.4305
     22 C16         2.1283   -8.0184    5.9989 C.ar      1 <0>         0.2875
     23 C17         2.3207   -6.7142    5.5089 C.ar      1 <0>        -0.1315
     24 C18         1.4817   -5.6874    5.9381 C.ar      1 <0>        -0.0343
     25 C19         0.4829   -5.9985    6.8435 C.ar      1 <0>        -0.1857
     26 C20         0.3517   -7.3045    7.2877 C.ar      1 <0>         0.1459
     27 N4          1.1512   -8.2600    6.8632 N.ar      1 <0>        -0.4900
     28 H2         -0.9591    1.9053    0.0259 H         1 <0>         0.1331
     29 H3          1.1563    3.1654    0.0076 H         1 <0>         0.1341
     30 H4          3.3051    1.9634   -0.0196 H         1 <0>         0.1304
     31 H5          1.2231   -1.7588   -0.0176 H         1 <0>         0.1215
     32 H6         -0.9258   -0.5567    0.0082 H         1 <0>         0.1328
     33 H7          4.5034   -0.0434    0.3089 H         1 <0>         0.1263
     34 H8          3.1853   -1.7587   -1.8427 H         1 <0>         0.1386
     35 H9          4.1672   -0.2970   -2.1027 H         1 <0>         0.1514
     36 H10         5.4418   -2.2901   -2.4020 H         1 <0>         0.4368
     37 H11         6.0105   -1.4392   -1.1107 H         1 <0>         0.4425
     38 H12         2.7694   -2.2773    1.0375 H         1 <0>         0.4152
     39 H13         6.7187   -3.8921    2.8282 H         1 <0>         0.1492
     40 H14         6.1509   -5.8349    4.2369 H         1 <0>         0.1515
     41 H15         4.7015   -8.4736    4.0069 H         1 <0>         0.1911
     42 H16         1.6078   -4.6781    5.5749 H         1 <0>         0.1331
     43 H17        -0.1876   -5.2310    7.2007 H         1 <0>         0.1448
     44 H18        -0.4287   -7.5451    7.9945 H         1 <0>         0.1689
     45 H19         5.1016   -2.7923   -0.8700 H         1 <0>         0.4271
@<TRIPOS>BOND
     1    1    6 ar
     2    1    2 ar
     3    1   28 1
     4    2    3 ar
     5    2   29 1
     6    3    4 ar
     7    3   30 1
     8    4    5 ar
     9    4    7 1
    10    5    6 ar
    11    5   31 1
    12    6   32 1
    13    7    8 1
    14    7   10 1
    15    7   33 1
    16    8    9 1
    17    8   34 1
    18    8   35 1
    19    9   36 1
    20    9   37 1
    21    9   45 1
    22   10   11 am
    23   10   38 1
    24   11   12 2
    25   11   13 1
    26   13   17 1
    27   13   14 2
    28   14   15 1
    29   14   39 1
    30   15   16 2
    31   15   40 1
    32   16   17 1
    33   16   18 1
    34   18   23 1
    35   18   19 2
    36   19   20 1
    37   19   41 1
    38   20   21 1
    39   20   22 1
    40   22   27 ar
    41   22   23 ar
    42   23   24 ar
    43   24   25 ar
    44   24   42 1
    45   25   26 ar
    46   25   43 1
    47   26   27 ar
    48   26   44 1
@<TRIPOS>MOLECULE
CHEMBL470192
   45    48     0     0     0
SMALL
USER_CHARGES

@<TRIPOS>ATOM
      1 C1         -0.0167    1.3781    0.0096 C.ar      1 <0>        -0.0953
      2 C2          1.1709    2.0855    0.0021 C.ar      1 <0>        -0.1097
      3 C3          2.3773    1.4107   -0.0130 C.ar      1 <0>        -0.0947
      4 C4          2.3960    0.0285   -0.0201 C.ar      1 <0>        -0.1227
      5 C5          1.2084   -0.6789   -0.0117 C.ar      1 <0>        -0.1103
      6 C6          0.0021   -0.0041    0.0020 C.ar      1 <0>        -0.1099
      7 C7          3.7112   -0.7071   -0.0376 C.3       1 <0>         0.1716
      8 C8          4.0489   -1.1818    1.3772 C.3       1 <0>        -0.0182
      9 N1          5.2681   -2.0004    1.3411 N.4       1 <0>        -0.6341
     10 N2          3.6115   -1.8645   -0.9302 N.am      1 <0>        -0.7340
     11 C9          4.7211   -2.3705   -1.5040 C.2       1 <0>         0.6113
     12 O1          5.8064   -1.8657   -1.2805 O.2       1 <0>        -0.5428
     13 C10         4.6216   -3.5256   -2.3948 C.2       1 <0>        -0.2954
     14 C11         5.6322   -4.1937   -3.0729 C.2       1 <0>        -0.0268
     15 C12         5.3011   -5.2599   -3.8587 C.2       1 <0>        -0.1892
     16 C13         3.9676   -5.6337   -3.9488 C.2       1 <0>         0.0113
     17 S1          3.1704   -4.4434   -2.8835 S.3       1 <0>         0.1101
     18 C14         3.3646   -6.7357   -4.7212 C.2       1 <0>        -0.1386
     19 C15         3.5705   -7.0160   -6.0355 C.2       1 <0>         0.1345
     20 N3          2.8400   -8.1112   -6.3920 N.pl3     1 <0>        -0.5664
     21 H1          2.8246   -8.5014   -7.2800 H         1 <0>         0.4309
     22 C16         2.1284   -8.5846   -5.3138 C.ar      1 <0>         0.2878
     23 C17         2.4259   -7.7528   -4.2196 C.ar      1 <0>        -0.1309
     24 C18         1.8392   -8.0086   -2.9815 C.ar      1 <0>        -0.0348
     25 C19         0.9791   -9.0874   -2.8794 C.ar      1 <0>        -0.1866
     26 C20         0.7328   -9.8678   -3.9976 C.ar      1 <0>         0.1451
     27 N4          1.2927   -9.6033   -5.1591 N.ar      1 <0>        -0.4892
     28 H2         -0.9591    1.9053    0.0259 H         1 <0>         0.1331
     29 H3          1.1563    3.1654    0.0076 H         1 <0>         0.1341
     30 H4          3.3051    1.9634   -0.0196 H         1 <0>         0.1304
     31 H5          1.2231   -1.7588   -0.0176 H         1 <0>         0.1216
     32 H6         -0.9258   -0.5567    0.0082 H         1 <0>         0.1328
     33 H7          4.4960   -0.0399   -0.3940 H         1 <0>         0.1263
     34 H8          4.2104   -0.3176    2.0215 H         1 <0>         0.1515
     35 H9          3.2232   -1.7768    1.7676 H         1 <0>         0.1386
     36 H10         5.4908   -2.3134    2.2741 H         1 <0>         0.4368
     37 H11         5.1186   -2.8004    0.7447 H         1 <0>         0.4271
     38 H12         2.7469   -2.2666   -1.1082 H         1 <0>         0.4152
     39 H13         6.6603   -3.8760   -2.9808 H         1 <0>         0.1492
     40 H14         6.0623   -5.8019   -4.4003 H         1 <0>         0.1515
     41 H15         4.2150   -6.4563   -6.6971 H         1 <0>         0.1918
     42 H16         2.0501   -7.3832   -2.1266 H         1 <0>         0.1320
     43 H17         0.5046   -9.3192   -1.9373 H         1 <0>         0.1441
     44 H18         0.0610  -10.7095   -3.9156 H         1 <0>         0.1686
     45 H19         6.0324   -1.4496    0.9797 H         1 <0>         0.4425
@<TRIPOS>BOND
     1    1    6 ar
     2    1    2 ar
     3    1   28 1
     4    2    3 ar
     5    2   29 1
     6    3    4 ar
     7    3   30 1
     8    4    5 ar
     9    4    7 1
    10    5    6 ar
    11    5   31 1
    12    6   32 1
    13    7    8 1
    14    7   10 1
    15    7   33 1
    16    8    9 1
    17    8   34 1
    18    8   35 1
    19    9   36 1
    20    9   37 1
    21    9   45 1
    22   10   11 am
    23   10   38 1
    24   11   12 2
    25   11   13 1
    26   13   17 1
    27   13   14 2
    28   14   15 1
    29   14   39 1
    30   15   16 2
    31   15   40 1
    32   16   17 1
    33   16   18 1
    34   18   23 1
    35   18   19 2
    36   19   20 1
    37   19   41 1
    38   20   21 1
    39   20   22 1
    40   22   27 ar
    41   22   23 ar
    42   23   24 ar
    43   24   25 ar
    44   24   42 1
    45   25   26 ar
    46   25   43 1
    47   26   27 ar
    48   26   44 1
@<TRIPOS>MOLECULE
CHEMBL574476
   74    81     0     0     0
SMALL
USER_CHARGES

@<TRIPOS>ATOM
      1 C1         -0.3305    0.5256   -0.9337 C.ar      1 <0>        -0.0970
      2 C2          0.7258    1.4178   -0.8891 C.ar      1 <0>        -0.1164
      3 C3          2.0101    0.9607   -0.6751 C.ar      1 <0>        -0.0721
      4 C4          2.2420   -0.4037   -0.5037 C.ar      1 <0>        -0.0584
      5 C5          1.1730   -1.2982   -0.5497 C.ar      1 <0>        -0.0887
      6 C6         -0.1067   -0.8290   -0.7643 C.ar      1 <0>        -0.1261
      7 C7          3.6184   -0.9010   -0.2741 C.ar      1 <0>         0.1739
      8 C8          3.8616   -1.8598    0.7403 C.ar      1 <0>         0.1438
      9 N1          5.0842   -2.3099    0.9536 N.ar      1 <0>        -0.3989
     10 C9          6.0989   -1.8591    0.2080 C.ar      1 <0>         0.0791
     11 C10         7.4086   -2.3265    0.4191 C.ar      1 <0>        -0.0438
     12 C11         8.4288   -1.8584   -0.3476 C.ar      1 <0>        -0.1037
     13 C12         8.1971   -0.9114   -1.3520 C.ar      1 <0>         0.1666
     14 C13         6.9278   -0.4321   -1.5860 C.ar      1 <0>        -0.0655
     15 C14         5.8554   -0.8990   -0.8083 C.ar      1 <0>         0.1078
     16 N2          4.6118   -0.4527   -1.0193 N.ar      1 <0>        -0.4051
     17 N3          9.2681   -0.4460   -2.1270 N.pl3     1 <0>        -0.3413
     18 C15        10.5483   -0.8765   -2.0998 C.2       1 <0>         0.2360
     19 N4         11.2127   -0.1744   -2.9801 N.2       1 <0>        -0.3199
     20 N5         10.4401    0.6704   -3.5619 N.2       1 <0>        -0.0199
     21 N6          9.2393    0.5648   -3.1039 N.2       1 <0>        -0.0688
     22 C16         2.7381   -2.3595    1.5664 C.ar      1 <0>        -0.0067
     23 C17         1.8022   -1.4672    2.0887 C.ar      1 <0>        -0.0769
     24 C18         0.7575   -1.9387    2.8571 C.ar      1 <0>        -0.0958
     25 C19         0.6375   -3.2936    3.1096 C.ar      1 <0>        -0.1487
     26 C20         1.5626   -4.1837    2.5941 C.ar      1 <0>        -0.0914
     27 C21         2.6087   -3.7248    1.8200 C.ar      1 <0>        -0.0768
     28 C22        -0.5056   -3.8019    3.9499 C.3       1 <0>         0.0430
     29 N7         -1.6508   -4.1109    3.0834 N.4       1 <0>        -0.3852
     30 C23        -2.1370   -2.8750    2.4583 C.3       1 <0>        -0.0077
     31 C24        -3.2779   -3.2020    1.4924 C.3       1 <0>        -0.1650
     32 C25        -4.4194   -3.8678    2.2662 C.3       1 <0>         0.1609
     33 C26        -3.8833   -5.1151    2.9747 C.3       1 <0>        -0.1671
     34 C27        -2.7200   -4.7172    3.8857 C.3       1 <0>         0.0010
     35 N8         -5.4833   -4.2524    1.3354 N.am      1 <0>        -0.5372
     36 C28        -6.7994   -3.7976    1.3688 C.ar      1 <0>         0.0794
     37 C29        -7.4830   -2.9228    2.1994 C.ar      1 <0>        -0.1044
     38 C30        -8.8208   -2.6644    1.9738 C.ar      1 <0>        -0.1027
     39 C31        -9.4822   -3.2754    0.9222 C.ar      1 <0>        -0.0988
     40 C32        -8.8098   -4.1485    0.0898 C.ar      1 <0>        -0.1000
     41 C33        -7.4663   -4.4135    0.3079 C.ar      1 <0>         0.0916
     42 N9         -6.5347   -5.2234   -0.3373 N.am      1 <0>        -0.6394
     43 H1         -6.7063   -5.7779   -1.1145 H         1 <0>         0.4397
     44 C34        -5.3541   -5.1011    0.2982 C.2       1 <0>         0.6858
     45 O1         -4.3269   -5.6735   -0.0151 O.2       1 <0>        -0.5581
     46 H2         -1.3345    0.8886   -1.0969 H         1 <0>         0.1283
     47 H3          0.5450    2.4742   -1.0224 H         1 <0>         0.1329
     48 H4          2.8340    1.6581   -0.6409 H         1 <0>         0.1312
     49 H5          1.3465   -2.3560   -0.4179 H         1 <0>         0.1218
     50 H6         -0.9354   -1.5208   -0.8002 H         1 <0>         0.1242
     51 H7          7.6036   -3.0568    1.1904 H         1 <0>         0.1615
     52 H8          9.4318   -2.2219   -0.1792 H         1 <0>         0.1550
     53 H9          6.7577    0.2982   -2.3632 H         1 <0>         0.1635
     54 H10        10.9486   -1.6556   -1.4681 H         1 <0>         0.2447
     55 H11         1.8951   -0.4092    1.8926 H         1 <0>         0.1390
     56 H12         0.0324   -1.2486    3.2624 H         1 <0>         0.1376
     57 H13         1.4639   -5.2402    2.7950 H         1 <0>         0.1380
     58 H14         3.3278   -4.4210    1.4145 H         1 <0>         0.1406
     59 H15        -0.1955   -4.7038    4.4776 H         1 <0>         0.1406
     60 H16        -0.7926   -3.0384    4.6729 H         1 <0>         0.1389
     61 H17        -2.4986   -2.1957    3.2304 H         1 <0>         0.1332
     62 H18        -1.3226   -2.4006    1.9107 H         1 <0>         0.1393
     63 H19        -3.6387   -2.2828    1.0308 H         1 <0>         0.1175
     64 H20        -2.9173   -3.8810    0.7198 H         1 <0>         0.1072
     65 H21        -4.8144   -3.1704    3.0050 H         1 <0>         0.1151
     66 H22        -4.6769   -5.5635    3.5726 H         1 <0>         0.1182
     67 H23        -3.5353   -5.8338    2.2328 H         1 <0>         0.1076
     68 H24        -2.3361   -5.6029    4.3918 H         1 <0>         0.1388
     69 H25        -3.0691   -3.9987    4.6273 H         1 <0>         0.1338
     70 H26        -6.9706   -2.4448    3.0212 H         1 <0>         0.1289
     71 H27        -9.3534   -1.9830    2.6207 H         1 <0>         0.1387
     72 H28       -10.5285   -3.0687    0.7522 H         1 <0>         0.1400
     73 H29        -9.3292   -4.6239   -0.7291 H         1 <0>         0.1367
     74 H30        -1.3627   -4.7580    2.3648 H         1 <0>         0.4262
@<TRIPOS>BOND
     1    1    6 ar
     2    1    2 ar
     3    1   46 1
     4    2    3 ar
     5    2   47 1
     6    3    4 ar
     7    3   48 1
     8    4    5 ar
     9    4    7 1
    10    5    6 ar
    11    5   49 1
    12    6   50 1
    13    7   16 ar
    14    7    8 ar
    15    8    9 ar
    16    8   22 1
    17    9   10 ar
    18   10   15 ar
    19   10   11 ar
    20   11   12 ar
    21   11   51 1
    22   12   13 ar
    23   12   52 1
    24   13   14 ar
    25   13   17 1
    26   14   15 ar
    27   14   53 1
    28   15   16 ar
    29   17   21 1
    30   17   18 1
    31   18   19 2
    32   18   54 1
    33   19   20 1
    34   20   21 2
    35   22   27 ar
    36   22   23 ar
    37   23   24 ar
    38   23   55 1
    39   24   25 ar
    40   24   56 1
    41   25   26 ar
    42   25   28 1
    43   26   27 ar
    44   26   57 1
    45   27   58 1
    46   28   29 1
    47   28   59 1
    48   28   60 1
    49   29   34 1
    50   29   30 1
    51   29   74 1
    52   30   31 1
    53   30   61 1
    54   30   62 1
    55   31   32 1
    56   31   63 1
    57   31   64 1
    58   32   33 1
    59   32   35 1
    60   32   65 1
    61   33   34 1
    62   33   66 1
    63   33   67 1
    64   34   68 1
    65   34   69 1
    66   35   44 am
    67   35   36 1
    68   36   41 ar
    69   36   37 ar
    70   37   38 ar
    71   37   70 1
    72   38   39 ar
    73   38   71 1
    74   39   40 ar
    75   39   72 1
    76   40   41 ar
    77   40   73 1
    78   41   42 1
    79   42   43 1
    80   42   44 am
    81   44   45 2
@<TRIPOS>MOLECULE
CHEMBL383254
   43    45     0     0     0
SMALL
USER_CHARGES

@<TRIPOS>ATOM
      1 C1          0.0817    1.5412    0.1008 C.ar      1 <0>        -0.0995
      2 C2          0.0378    0.1607    0.0444 C.ar      1 <0>        -0.1078
      3 C3          1.2124   -0.5669   -0.0005 C.ar      1 <0>        -0.1207
      4 C4          2.4307    0.0861    0.0104 C.ar      1 <0>        -0.1318
      5 C5          2.4746    1.4666    0.0658 C.ar      1 <0>        -0.1073
      6 C6          1.3001    2.1942    0.1122 C.ar      1 <0>        -0.1091
      7 C7          3.7112   -0.7071   -0.0376 C.3       1 <0>        -0.0122
      8 C8          3.6655   -1.6784   -1.2189 C.3       1 <0>        -0.0051
      9 N1          3.6313   -0.9192   -2.4760 N.4       1 <0>        -0.6355
     10 C9          3.8699   -1.4828    1.2447 C.ar      1 <0>        -0.1438
     11 C10         4.8719   -1.1545    2.1405 C.ar      1 <0>        -0.0504
     12 C11         4.9799   -1.9040    3.3195 C.ar      1 <0>        -0.0907
     13 C12         4.0761   -2.9466    3.5408 C.ar      1 <0>         0.1190
     14 N2          3.1397   -3.2192    2.6564 N.ar      1 <0>        -0.4684
     15 C13         3.0118   -2.5266    1.5406 C.ar      1 <0>         0.1037
     16 C14         6.0288   -1.5984    4.3088 C.2       1 <0>        -0.1110
     17 C15         6.1218   -2.3241    5.4347 C.2       1 <0>        -0.0835
     18 C16         7.1704   -2.0186    6.4237 C.ar      1 <0>        -0.0248
     19 C17         8.0776   -0.9712    6.2120 C.ar      1 <0>        -0.1664
     20 C18         9.0424   -0.7206    7.1645 C.ar      1 <0>         0.1039
     21 N3          9.1180   -1.4504    8.2614 N.ar      1 <0>        -0.4808
     22 C19         8.2847   -2.4454    8.5007 C.ar      1 <0>         0.1050
     23 C20         7.2855   -2.7634    7.6056 C.ar      1 <0>        -0.1573
     24 H1         -0.8360    2.1098    0.1313 H         1 <0>         0.1323
     25 H2         -0.9140   -0.3494    0.0359 H         1 <0>         0.1324
     26 H3          1.1781   -1.6454   -0.0438 H         1 <0>         0.1253
     27 H4          3.4265    1.9768    0.0747 H         1 <0>         0.1281
     28 H5          1.3343    3.2727    0.1559 H         1 <0>         0.1324
     29 H6          4.5551   -0.0279   -0.1581 H         1 <0>         0.1123
     30 H7          4.5513   -2.3132   -1.2018 H         1 <0>         0.1441
     31 H8          2.7723   -2.2988   -1.1447 H         1 <0>         0.1374
     32 H9          2.8112   -0.3315   -2.4918 H         1 <0>         0.4357
     33 H10         4.4580   -0.3448   -2.5446 H         1 <0>         0.4359
     34 H11         5.5533   -0.3419    1.9362 H         1 <0>         0.1416
     35 H12         4.1465   -3.5338    4.4445 H         1 <0>         0.1649
     36 H13         2.2264   -2.7818    0.8445 H         1 <0>         0.1520
     37 H14         6.7227   -0.7908    4.1281 H         1 <0>         0.1313
     38 H15         5.4279   -3.1318    5.6153 H         1 <0>         0.1308
     39 H16         8.0219   -0.3700    5.3165 H         1 <0>         0.1357
     40 H17         9.7462    0.0839    7.0106 H         1 <0>         0.1594
     41 H18         8.3843   -3.0158    9.4123 H         1 <0>         0.1615
     42 H19         6.6042   -3.5761    7.8102 H         1 <0>         0.1404
     43 H20         3.6011   -1.5597   -3.2550 H         1 <0>         0.4409
@<TRIPOS>BOND
     1    1    6 ar
     2    1    2 ar
     3    1   24 1
     4    2    3 ar
     5    2   25 1
     6    3    4 ar
     7    3   26 1
     8    4    5 ar
     9    4    7 1
    10    5    6 ar
    11    5   27 1
    12    6   28 1
    13    7    8 1
    14    7   10 1
    15    7   29 1
    16    8    9 1
    17    8   30 1
    18    8   31 1
    19    9   32 1
    20    9   33 1
    21    9   43 1
    22   10   15 ar
    23   10   11 ar
    24   11   12 ar
    25   11   34 1
    26   12   13 ar
    27   12   16 1
    28   13   14 ar
    29   13   35 1
    30   14   15 ar
    31   15   36 1
    32   16   17 2
    33   16   37 1
    34   17   18 1
    35   17   38 1
    36   18   23 ar
    37   18   19 ar
    38   19   20 ar
    39   19   39 1
    40   20   21 ar
    41   20   40 1
    42   21   22 ar
    43   22   23 ar
    44   22   41 1
    45   23   42 1
@<TRIPOS>MOLECULE
CHEMBL383254
   43    45     0     0     0
SMALL
USER_CHARGES

@<TRIPOS>ATOM
      1 C1          0.4322    1.9946   -0.4811 C.ar      1 <0>        -0.1019
      2 C2          1.7300    2.4614   -0.5750 C.ar      1 <0>        -0.1108
      3 C3          2.7911    1.5871   -0.4313 C.ar      1 <0>        -0.1025
      4 C4          2.5544    0.2461   -0.1932 C.ar      1 <0>        -0.1006
      5 C5          1.2567   -0.2205   -0.0984 C.ar      1 <0>        -0.1161
      6 C6          0.1956    0.6535   -0.2435 C.ar      1 <0>        -0.1103
      7 C7          3.7112   -0.7071   -0.0376 C.3       1 <0>        -0.0116
      8 C8          3.5475   -1.5000    1.2607 C.3       1 <0>        -0.0053
      9 N1          4.7325   -2.3418    1.4730 N.4       1 <0>        -0.6371
     10 C9          3.7395   -1.6578   -1.2066 C.ar      1 <0>        -0.1747
     11 C10         4.7704   -1.6021   -2.1277 C.ar      1 <0>        -0.0571
     12 C11         4.7540   -2.5068   -3.1976 C.ar      1 <0>        -0.0863
     13 C12         3.7029   -3.4230   -3.2899 C.ar      1 <0>         0.1192
     14 N2          2.7450   -3.4352   -2.3868 N.ar      1 <0>        -0.4640
     15 C13         2.7382   -2.5986   -1.3664 C.ar      1 <0>         0.0975
     16 C14         5.8266   -2.4919   -4.2085 C.2       1 <0>        -0.1181
     17 C15         5.7994   -3.3641   -5.2290 C.2       1 <0>        -0.0764
     18 C16         6.8716   -3.3492   -6.2396 C.ar      1 <0>        -0.0283
     19 C17         7.9324   -2.4372   -6.1516 C.ar      1 <0>        -0.1652
     20 C18         8.9142   -2.4593   -7.1193 C.ar      1 <0>         0.1042
     21 N3          8.8641   -3.3223   -8.1165 N.ar      1 <0>        -0.4791
     22 C19         7.8841   -4.1978   -8.2377 C.ar      1 <0>         0.1056
     23 C20         6.8629   -4.2506   -7.3130 C.ar      1 <0>        -0.1560
     24 H1         -0.3967    2.6784   -0.5889 H         1 <0>         0.1308
     25 H2          1.9149    3.5090   -0.7610 H         1 <0>         0.1310
     26 H3          3.8050    1.9517   -0.5054 H         1 <0>         0.1259
     27 H4          1.0718   -1.2682    0.0872 H         1 <0>         0.1210
     28 H5         -0.8183    0.2889   -0.1698 H         1 <0>         0.1305
     29 H6          4.6440   -0.1442   -0.0044 H         1 <0>         0.1125
     30 H7          3.4379   -0.8093    2.0968 H         1 <0>         0.1477
     31 H8          2.6613   -2.1308    1.1919 H         1 <0>         0.1372
     32 H9          4.8339   -2.9811    0.6990 H         1 <0>         0.4331
     33 H10         5.5529   -1.7579    1.5367 H         1 <0>         0.4362
     34 H11         5.5668   -0.8800   -2.0248 H         1 <0>         0.1438
     35 H12         3.6758   -4.1265   -4.1089 H         1 <0>         0.1661
     36 H13         1.9348   -2.6464   -0.6462 H         1 <0>         0.1561
     37 H14         6.6343   -1.7796   -4.1283 H         1 <0>         0.1323
     38 H15         4.9916   -4.0764   -5.3092 H         1 <0>         0.1310
     39 H16         7.9797   -1.7279   -5.3385 H         1 <0>         0.1357
     40 H17         9.7355   -1.7605   -7.0606 H         1 <0>         0.1600
     41 H18         7.8844   -4.8853   -9.0706 H         1 <0>         0.1622
     42 H19         6.0666   -4.9729   -7.4161 H         1 <0>         0.1407
     43 H20         4.6245   -2.8647    2.3292 H         1 <0>         0.4414
@<TRIPOS>BOND
     1    1    6 ar
     2    1    2 ar
     3    1   24 1
     4    2    3 ar
     5    2   25 1
     6    3    4 ar
     7    3   26 1
     8    4    5 ar
     9    4    7 1
    10    5    6 ar
    11    5   27 1
    12    6   28 1
    13    7    8 1
    14    7   10 1
    15    7   29 1
    16    8    9 1
    17    8   30 1
    18    8   31 1
    19    9   32 1
    20    9   33 1
    21    9   43 1
    22   10   15 ar
    23   10   11 ar
    24   11   12 ar
    25   11   34 1
    26   12   13 ar
    27   12   16 1
    28   13   14 ar
    29   13   35 1
    30   14   15 ar
    31   15   36 1
    32   16   17 2
    33   16   37 1
    34   17   18 1
    35   17   38 1
    36   18   23 ar
    37   18   19 ar
    38   19   20 ar
    39   19   39 1
    40   20   21 ar
    41   20   40 1
    42   21   22 ar
    43   22   23 ar
    44   22   41 1
    45   23   42 1
@<TRIPOS>MOLECULE
CHEMBL512858
   52    56     0     0     0
SMALL
USER_CHARGES

@<TRIPOS>ATOM
      1 C1          0.2018    0.8480   -1.0915 C.ar      1 <0>        -0.0950
      2 C2          1.4105    1.5086   -1.2073 C.ar      1 <0>        -0.1095
      3 C3          2.5957    0.8079   -1.0844 C.ar      1 <0>        -0.0943
      4 C4          2.5722   -0.5534   -0.8452 C.ar      1 <0>        -0.1230
      5 C5          1.3635   -1.2139   -0.7285 C.ar      1 <0>        -0.1104
      6 C6          0.1782   -0.5134   -0.8528 C.ar      1 <0>        -0.1097
      7 C7          3.8643   -1.3175   -0.7122 C.3       1 <0>         0.1716
      8 C8          4.1713   -2.0335   -2.0290 C.3       1 <0>        -0.0185
      9 N1          5.3652   -2.8731   -1.8631 N.4       1 <0>        -0.6344
     10 N2          3.7393   -2.3049    0.3629 N.am      1 <0>        -0.7328
     11 C9          4.8392   -2.7428    1.0069 C.2       1 <0>         0.6115
     12 O1          5.9364   -2.3179    0.6955 O.2       1 <0>        -0.5392
     13 C10         4.7141   -3.7306    2.0825 C.2       1 <0>        -0.2828
     14 C11         5.7097   -4.2990    2.8643 C.2       1 <0>        -0.0345
     15 C12         5.3549   -5.2093    3.8189 C.2       1 <0>        -0.0947
     16 C13         4.0140   -5.5297    3.9691 C.2       1 <0>        -0.0441
     17 S1          3.2411   -4.5055    2.7279 S.3       1 <0>         0.1345
     18 C14         3.3867   -6.4707    4.9160 C.ar      1 <0>         0.0504
     19 C15         3.9014   -7.7568    5.1048 C.ar      1 <0>        -0.1606
     20 C16         3.2823   -8.6061    6.0027 C.ar      1 <0>         0.1408
     21 N3          2.2187   -8.2368    6.6863 N.ar      1 <0>        -0.4815
     22 C17         1.6807   -7.0315    6.5541 C.ar      1 <0>         0.2909
     23 C18         2.2516   -6.1019    5.6654 C.ar      1 <0>        -0.1311
     24 C19         1.4397   -4.8916    5.7599 C.2       1 <0>        -0.2080
     25 C20         0.4728   -5.1397    6.6601 C.2       1 <0>         0.0840
     26 N4          0.5984   -6.4162    7.1374 N.pl3     1 <0>        -0.5774
     27 H1          0.0160   -6.8233    7.7976 H         1 <0>         0.4265
     28 C21         6.4008   -5.8536    4.6919 C.3       1 <0>        -0.1119
     29 C22         7.7961   -5.2261    4.7030 C.3       1 <0>        -0.1718
     30 C23         7.5639   -6.5624    3.9949 C.3       1 <0>        -0.1641
     31 H2         -0.7242    1.3962   -1.1831 H         1 <0>         0.1332
     32 H3          1.4289    2.5721   -1.3942 H         1 <0>         0.1342
     33 H4          3.5401    1.3239   -1.1756 H         1 <0>         0.1305
     34 H5          1.3451   -2.2775   -0.5419 H         1 <0>         0.1216
     35 H6         -0.7661   -1.0295   -0.7620 H         1 <0>         0.1329
     36 H7          4.6731   -0.6255   -0.4777 H         1 <0>         0.1269
     37 H8          3.3235   -2.6587   -2.3089 H         1 <0>         0.1391
     38 H9          4.3520   -1.2953   -2.8104 H         1 <0>         0.1521
     39 H10         5.5677   -3.3452   -2.7315 H         1 <0>         0.4372
     40 H11         6.1501   -2.2943   -1.6040 H         1 <0>         0.4425
     41 H12         2.8648   -2.6435    0.6111 H         1 <0>         0.4156
     42 H13         6.7450   -4.0271    2.7207 H         1 <0>         0.1516
     43 H14         4.7721   -8.0830    4.5554 H         1 <0>         0.1463
     44 H15         3.6812   -9.5992    6.1473 H         1 <0>         0.1713
     45 H16         1.5881   -3.9730    5.2118 H         1 <0>         0.1496
     46 H17        -0.2943   -4.4392    6.9558 H         1 <0>         0.1851
     47 H18         6.0349   -6.2843    5.6240 H         1 <0>         0.1204
     48 H19         7.9576   -4.3472    4.0788 H         1 <0>         0.0972
     49 H20         8.3484   -5.2436    5.6425 H         1 <0>         0.1046
     50 H21         7.9634   -7.4591    4.4687 H         1 <0>         0.1051
     51 H22         7.5726   -6.5626    2.9050 H         1 <0>         0.0954
     52 H23         5.1980   -3.5564   -1.1398 H         1 <0>         0.4268
@<TRIPOS>BOND
     1    1    6 ar
     2    1    2 ar
     3    1   31 1
     4    2    3 ar
     5    2   32 1
     6    3    4 ar
     7    3   33 1
     8    4    5 ar
     9    4    7 1
    10    5    6 ar
    11    5   34 1
    12    6   35 1
    13    7    8 1
    14    7   10 1
    15    7   36 1
    16    8    9 1
    17    8   37 1
    18    8   38 1
    19    9   39 1
    20    9   40 1
    21    9   52 1
    22   10   11 am
    23   10   41 1
    24   11   12 2
    25   11   13 1
    26   13   17 1
    27   13   14 2
    28   14   15 1
    29   14   42 1
    30   15   16 2
    31   15   28 1
    32   16   17 1
    33   16   18 1
    34   18   23 ar
    35   18   19 ar
    36   19   20 ar
    37   19   43 1
    38   20   21 ar
    39   20   44 1
    40   21   22 ar
    41   22   26 1
    42   22   23 ar
    43   23   24 1
    44   24   25 2
    45   24   45 1
    46   25   26 1
    47   25   46 1
    48   26   27 1
    49   28   30 1
    50   28   29 1
    51   28   47 1
    52   29   30 1
    53   29   48 1
    54   29   49 1
    55   30   50 1
    56   30   51 1
@<TRIPOS>MOLECULE
CHEMBL512858
   52    56     0     0     0
SMALL
USER_CHARGES

@<TRIPOS>ATOM
      1 C1         -0.1095    1.8033   -1.1237 C.ar      1 <0>        -0.0950
      2 C2          1.0670    2.5157   -1.2622 C.ar      1 <0>        -0.1095
      3 C3          2.2837    1.8676   -1.1590 C.ar      1 <0>        -0.0944
      4 C4          2.3239    0.5073   -0.9169 C.ar      1 <0>        -0.1231
      5 C5          1.1474   -0.2050   -0.7775 C.ar      1 <0>        -0.1104
      6 C6         -0.0693    0.4428   -0.8821 C.ar      1 <0>        -0.1097
      7 C7          3.6502   -0.1994   -0.8054 C.3       1 <0>         0.1716
      8 C8          3.9955   -0.4060    0.6707 C.3       1 <0>        -0.0183
      9 N1          5.2273   -1.1991    0.7791 N.4       1 <0>        -0.6345
     10 N2          3.5683   -1.5001   -1.4745 N.am      1 <0>        -0.7328
     11 C9          4.6855   -2.0843   -1.9510 C.2       1 <0>         0.6114
     12 O1          5.7624   -1.5313   -1.8255 O.2       1 <0>        -0.5391
     13 C10         4.6036   -3.3857   -2.6204 C.2       1 <0>        -0.2826
     14 C11         5.6237   -4.1493   -3.1697 C.2       1 <0>        -0.0347
     15 C12         5.3087   -5.3452   -3.7498 C.2       1 <0>        -0.0947
     16 C13         3.9821   -5.7491   -3.7670 C.2       1 <0>        -0.0443
     17 S1          3.1667   -4.3985   -2.9313 S.3       1 <0>         0.1346
     18 C14         3.3960   -6.9816   -4.3264 C.ar      1 <0>         0.0504
     19 C15         3.7364   -7.4271   -5.6071 C.ar      1 <0>        -0.1594
     20 C16         3.1636   -8.5878   -6.0921 C.ar      1 <0>         0.1420
     21 N3          2.3039   -9.2869   -5.3799 N.ar      1 <0>        -0.4816
     22 C17         1.9385   -8.9196   -4.1587 C.ar      1 <0>         0.2907
     23 C18         2.4783   -7.7532   -3.5859 C.ar      1 <0>        -0.1313
     24 C19         1.8868   -7.6377   -2.2556 C.2       1 <0>        -0.2086
     25 C20         1.0663   -8.6910   -2.1005 C.2       1 <0>         0.0834
     26 N4          1.0801   -9.4615   -3.2316 N.pl3     1 <0>        -0.5775
     27 H1          0.5678  -10.2756   -3.3566 H         1 <0>         0.4265
     28 C21         6.3823   -6.2090   -4.3599 C.3       1 <0>        -0.1122
     29 C22         7.8362   -5.8728   -4.0226 C.3       1 <0>        -0.1717
     30 C23         7.2854   -5.5719   -5.4179 C.3       1 <0>        -0.1645
     31 H2         -1.0600    2.3103   -1.1998 H         1 <0>         0.1332
     32 H3          1.0356    3.5785   -1.4513 H         1 <0>         0.1342
     33 H4          3.2029    2.4241   -1.2679 H         1 <0>         0.1305
     34 H5          1.1788   -1.2679   -0.5887 H         1 <0>         0.1216
     35 H6         -0.9885   -0.1138   -0.7736 H         1 <0>         0.1329
     36 H7          4.4246    0.4045   -1.2786 H         1 <0>         0.1268
     37 H8          4.1438    0.5625    1.1482 H         1 <0>         0.1521
     38 H9          3.1793   -0.9334    1.1644 H         1 <0>         0.1391
     39 H10         5.4550   -1.3354    1.7526 H         1 <0>         0.4372
     40 H11         5.0901   -2.0957    0.3371 H         1 <0>         0.4268
     41 H12         2.7101   -1.9409   -1.5746 H         1 <0>         0.4155
     42 H13         6.6468   -3.8046   -3.1395 H         1 <0>         0.1516
     43 H14         4.4384   -6.8707   -6.2105 H         1 <0>         0.1469
     44 H15         3.4277   -8.9305   -7.0816 H         1 <0>         0.1718
     45 H16         2.0733   -6.8558   -1.5343 H         1 <0>         0.1484
     46 H17         0.4771   -8.8940   -1.2185 H         1 <0>         0.1844
     47 H18         6.1247   -7.2607   -4.4854 H         1 <0>         0.1203
     48 H19         8.0163   -5.0267   -3.3594 H         1 <0>         0.0961
     49 H20         8.5355   -6.7033   -3.9259 H         1 <0>         0.1041
     50 H21         7.6222   -6.2044   -6.2392 H         1 <0>         0.1056
     51 H22         7.1030   -4.5278   -5.6726 H         1 <0>         0.0974
     52 H23         5.9829   -0.7109    0.3221 H         1 <0>         0.4426
@<TRIPOS>BOND
     1    1    6 ar
     2    1    2 ar
     3    1   31 1
     4    2    3 ar
     5    2   32 1
     6    3    4 ar
     7    3   33 1
     8    4    5 ar
     9    4    7 1
    10    5    6 ar
    11    5   34 1
    12    6   35 1
    13    7    8 1
    14    7   10 1
    15    7   36 1
    16    8    9 1
    17    8   37 1
    18    8   38 1
    19    9   39 1
    20    9   40 1
    21    9   52 1
    22   10   11 am
    23   10   41 1
    24   11   12 2
    25   11   13 1
    26   13   17 1
    27   13   14 2
    28   14   15 1
    29   14   42 1
    30   15   16 2
    31   15   28 1
    32   16   17 1
    33   16   18 1
    34   18   23 ar
    35   18   19 ar
    36   19   20 ar
    37   19   43 1
    38   20   21 ar
    39   20   44 1
    40   21   22 ar
    41   22   26 1
    42   22   23 ar
    43   23   24 1
    44   24   25 2
    45   24   45 1
    46   25   26 1
    47   25   46 1
    48   26   27 1
    49   28   30 1
    50   28   29 1
    51   28   47 1
    52   29   30 1
    53   29   48 1
    54   29   49 1
    55   30   50 1
    56   30   51 1
@<TRIPOS>MOLECULE
CHEMBL1099290
   51    53     0     0     0
SMALL
USER_CHARGES

@<TRIPOS>ATOM
      1 C1         -0.0187    1.5258    0.0104 C.3       1 <0>        -0.1688
      2 C2          0.0021   -0.0041    0.0020 C.3       1 <0>         0.0896
      3 N1          0.6878   -0.4765   -1.2033 N.pl3     1 <0>        -0.4484
      4 C3          0.1086   -0.7448   -2.4207 C.ar      1 <0>         0.0881
      5 C4         -1.1845   -0.6852   -2.9303 C.ar      1 <0>        -0.1123
      6 C5         -1.4044   -1.0413   -4.2449 C.ar      1 <0>         0.0611
      7 N2         -0.4160   -1.4362   -5.0265 N.ar      1 <0>        -0.4581
      8 C6          0.8373   -1.5137   -4.5989 C.ar      1 <0>         0.3423
      9 C7          1.1508   -1.1684   -3.2690 C.ar      1 <0>         0.0483
     10 N3          2.2863   -1.1397   -2.5500 N.2       1 <0>        -0.4393
     11 C8          2.0287   -0.7287   -1.3317 C.2       1 <0>         0.3609
     12 C9          3.0327   -0.5650   -0.2579 C.2       1 <0>         0.1200
     13 C10         4.4728   -0.8247   -0.3792 C.2       1 <0>         0.3636
     14 N4          5.0335   -0.5696    0.7708 N.2       1 <0>        -0.3373
     15 O1          4.0209   -0.1459    1.6660 O.3       1 <0>         0.0581
     16 N5          2.7916   -0.1585    0.9622 N.2       1 <0>        -0.2403
     17 N6          5.1261   -1.2663   -1.5222 N.pl3     1 <0>        -0.8014
     18 C11         1.8717   -1.9488   -5.4884 C.1       1 <0>        -0.1472
     19 C12         2.7197   -2.3055   -6.2177 C.1       1 <0>        -0.0929
     20 C13         3.7830   -2.7528   -7.1322 C.3       1 <0>         0.2360
     21 C14         5.1235   -2.7521   -6.3947 C.3       1 <0>        -0.1784
     22 C15         3.4716   -4.1681   -7.6229 C.3       1 <0>        -0.1404
     23 O2          3.8539   -1.8658   -8.2503 O.3       1 <0>        -0.5416
     24 C16        -2.8036   -0.9787   -4.8010 C.3       1 <0>         0.0611
     25 N7         -3.0042    0.3094   -5.4782 N.4       1 <0>        -0.3858
     26 C17        -2.1176    0.3917   -6.6465 C.3       1 <0>        -0.0479
     27 C18        -4.4022    0.4201   -5.9156 C.3       1 <0>        -0.0471
     28 H1          1.0039    1.9031    0.0027 H         1 <0>         0.0679
     29 H2         -0.5459    1.8868   -0.8726 H         1 <0>         0.0619
     30 H3         -0.5289    1.8773    0.9072 H         1 <0>         0.0941
     31 H4          0.5293   -0.3651    0.8851 H         1 <0>         0.1169
     32 H5         -1.0205   -0.3814    0.0098 H         1 <0>         0.1056
     33 H6         -2.0050   -0.3649   -2.3053 H         1 <0>         0.1521
     34 H7          4.6233   -1.4303   -2.3354 H         1 <0>         0.4287
     35 H8          6.0851   -1.4108   -1.5075 H         1 <0>         0.4225
     36 H9          5.0694   -3.4287   -5.5418 H         1 <0>         0.0750
     37 H10         5.9109   -3.0833   -7.0718 H         1 <0>         0.0832
     38 H11         5.3453   -1.7438   -6.0451 H         1 <0>         0.0659
     39 H12         2.5166   -4.1686   -8.1483 H         1 <0>         0.0691
     40 H13         4.2590   -4.4993   -8.3001 H         1 <0>         0.0821
     41 H14         3.4175   -4.8447   -6.7701 H         1 <0>         0.0777
     42 H15         4.0486   -0.9487   -8.0131 H         1 <0>         0.3830
     43 H16        -2.9478   -1.7904   -5.5141 H         1 <0>         0.1505
     44 H17        -3.5226   -1.0776   -3.9878 H         1 <0>         0.1477
     45 H18        -2.3482   -0.4208   -7.3356 H         1 <0>         0.1270
     46 H19        -2.2665    1.3475   -7.1490 H         1 <0>         0.1226
     47 H20        -1.0803    0.3095   -6.3220 H         1 <0>         0.1234
     48 H21        -5.0601    0.3590   -5.0487 H         1 <0>         0.1247
     49 H22        -4.5511    1.3759   -6.4180 H         1 <0>         0.1267
     50 H23        -4.6328   -0.3924   -6.6046 H         1 <0>         0.1254
     51 H24        -2.7908    1.0615   -4.8403 H         1 <0>         0.4243
@<TRIPOS>BOND
     1    1    2 1
     2    1   28 1
     3    1   29 1
     4    1   30 1
     5    2    3 1
     6    2   31 1
     7    2   32 1
     8    3   11 1
     9    3    4 1
    10    4    9 ar
    11    4    5 ar
    12    5    6 ar
    13    5   33 1
    14    6    7 ar
    15    6   24 1
    16    7    8 ar
    17    8    9 ar
    18    8   18 1
    19    9   10 1
    20   10   11 2
    21   11   12 1
    22   12   16 2
    23   12   13 1
    24   13   14 2
    25   13   17 1
    26   14   15 1
    27   15   16 1
    28   17   34 1
    29   17   35 1
    30   18   19 3
    31   19   20 1
    32   20   21 1
    33   20   22 1
    34   20   23 1
    35   21   36 1
    36   21   37 1
    37   21   38 1
    38   22   39 1
    39   22   40 1
    40   22   41 1
    41   23   42 1
    42   24   25 1
    43   24   43 1
    44   24   44 1
    45   25   26 1
    46   25   27 1
    47   25   51 1
    48   26   45 1
    49   26   46 1
    50   26   47 1
    51   27   48 1
    52   27   49 1
    53   27   50 1
@<TRIPOS>MOLECULE
CHEMBL1099290
   50    52     0     0     0
SMALL
USER_CHARGES

@<TRIPOS>ATOM
      1 C1         -0.0187    1.5258    0.0104 C.3       1 <0>        -0.1687
      2 C2          0.0021   -0.0041    0.0020 C.3       1 <0>         0.0957
      3 N1         -1.3723   -0.5112    0.0124 N.pl3     1 <0>        -0.4549
      4 C3         -2.1302   -0.7947    1.1236 C.ar      1 <0>         0.0986
      5 C4         -1.9267   -0.7251    2.4980 C.ar      1 <0>        -0.1288
      6 C5         -2.9461   -1.1040    3.3470 C.ar      1 <0>         0.1478
      7 N2         -4.1069   -1.5298    2.8831 N.ar      1 <0>        -0.4579
      8 C6         -4.3609   -1.6182    1.5842 C.ar      1 <0>         0.3160
      9 C7         -3.3748   -1.2513    0.6466 C.ar      1 <0>         0.0230
     10 N3         -3.3205   -1.2260   -0.6963 N.2       1 <0>        -0.4372
     11 C8         -2.1472   -0.7867   -1.0838 C.2       1 <0>         0.3286
     12 C9         -1.7233   -0.6173   -2.4908 C.2       1 <0>         0.1363
     13 C10        -2.5415   -0.9017   -3.6764 C.2       1 <0>         0.3647
     14 N4         -1.8325   -0.6324   -4.7378 N.2       1 <0>        -0.3494
     15 O1         -0.5620   -0.1752   -4.3099 O.3       1 <0>         0.0439
     16 N5         -0.5567   -0.1827   -2.8933 N.2       1 <0>        -0.2486
     17 N6         -3.8465   -1.3762   -3.6691 N.pl3     1 <0>        -0.8002
     18 C11        -5.6371   -2.0871    1.1346 C.1       1 <0>        -0.1104
     19 C12        -6.6834   -2.4715    0.7661 C.1       1 <0>        -0.1370
     20 C13        -7.9953   -2.9534    0.3040 C.3       1 <0>         0.2433
     21 C14        -8.0267   -2.9589   -1.2257 C.3       1 <0>        -0.1754
     22 C15        -8.2291   -4.3733    0.8239 C.3       1 <0>        -0.1380
     23 O2         -9.0211   -2.0902    0.7984 O.3       1 <0>        -0.5457
     24 C16        -2.7300   -1.0307    4.8366 C.3       1 <0>         0.1064
     25 N7         -3.2483    0.2465    5.3444 N.3       1 <0>        -0.5431
     26 C17        -4.7084    0.3172    5.1992 C.3       1 <0>         0.0234
     27 C18        -2.8473    0.4593    6.7415 C.3       1 <0>         0.0238
     28 H1          1.0039    1.9031    0.0027 H         1 <0>         0.0874
     29 H2         -0.5459    1.8868   -0.8726 H         1 <0>         0.0637
     30 H3         -0.5289    1.8773    0.9072 H         1 <0>         0.0662
     31 H4          0.5123   -0.3556   -0.8948 H         1 <0>         0.1094
     32 H5          0.5293   -0.3651    0.8851 H         1 <0>         0.1020
     33 H6         -0.9836   -0.3796    2.8950 H         1 <0>         0.1447
     34 H7         -4.2953   -1.5485   -2.8266 H         1 <0>         0.4315
     35 H8         -4.3094   -1.5353   -4.5066 H         1 <0>         0.4193
     36 H9         -7.2442   -3.6174   -1.6028 H         1 <0>         0.0735
     37 H10        -8.9981   -3.3158   -1.5679 H         1 <0>         0.0782
     38 H11        -7.8601   -1.9474   -1.5961 H         1 <0>         0.0637
     39 H12        -8.2067   -4.3694    1.9137 H         1 <0>         0.0683
     40 H13        -9.2005   -4.7301    0.4817 H         1 <0>         0.0768
     41 H14        -7.4466   -5.0317    0.4468 H         1 <0>         0.0765
     42 H15        -8.9360   -1.1717    0.5080 H         1 <0>         0.3821
     43 H16        -3.2550   -1.8542    5.3208 H         1 <0>         0.0611
     44 H17        -1.6641   -1.1021    5.0530 H         1 <0>         0.0955
     45 H18        -5.1692   -0.4952    5.7612 H         1 <0>         0.0312
     46 H19        -5.0659    1.2728    5.5828 H         1 <0>         0.0664
     47 H20        -4.9736    0.2264    4.1458 H         1 <0>         0.0736
     48 H21        -1.7595    0.4718    6.8094 H         1 <0>         0.0705
     49 H22        -3.2442    1.4119    7.0924 H         1 <0>         0.0725
     50 H23        -3.2406   -0.3479    7.3593 H         1 <0>         0.0295
@<TRIPOS>BOND
     1    1    2 1
     2    1   28 1
     3    1   29 1
     4    1   30 1
     5    2    3 1
     6    2   31 1
     7    2   32 1
     8    3   11 1
     9    3    4 1
    10    4    9 ar
    11    4    5 ar
    12    5    6 ar
    13    5   33 1
    14    6    7 ar
    15    6   24 1
    16    7    8 ar
    17    8    9 ar
    18    8   18 1
    19    9   10 1
    20   10   11 2
    21   11   12 1
    22   12   16 2
    23   12   13 1
    24   13   14 2
    25   13   17 1
    26   14   15 1
    27   15   16 1
    28   17   34 1
    29   17   35 1
    30   18   19 3
    31   19   20 1
    32   20   21 1
    33   20   22 1
    34   20   23 1
    35   21   36 1
    36   21   37 1
    37   21   38 1
    38   22   39 1
    39   22   40 1
    40   22   41 1
    41   23   42 1
    42   24   25 1
    43   24   43 1
    44   24   44 1
    45   25   26 1
    46   25   27 1
    47   26   45 1
    48   26   46 1
    49   26   47 1
    50   27   48 1
    51   27   49 1
    52   27   50 1
@<TRIPOS>MOLECULE
CHEMBL209281
   63    69     0     0     0
SMALL
USER_CHARGES

@<TRIPOS>ATOM
      1 C1         -0.0165    1.3620    0.0095 C.ar      1 <0>        -0.1440
      2 C2          1.1697    2.0834    0.0021 C.ar      1 <0>        -0.0960
      3 C3          2.3856    1.4362   -0.0134 C.ar      1 <0>        -0.1324
      4 C4          2.4281    0.0456   -0.0212 C.ar      1 <0>         0.1025
      5 C5          1.2234   -0.6807   -0.0132 C.ar      1 <0>        -0.0832
      6 C6          0.0021   -0.0041    0.0020 C.ar      1 <0>        -0.0594
      7 C7          1.6036   -2.0953   -0.0245 C.2       1 <0>        -0.1661
      8 C8          2.9451   -2.1410   -0.0380 C.2       1 <0>         0.0458
      9 N1          3.4551   -0.8713   -0.0363 N.pl3     1 <0>        -0.5940
     10 H1          4.3995   -0.6501   -0.0442 H         1 <0>         0.4143
     11 C9          0.6664   -3.2754   -0.0210 C.3       1 <0>        -0.0603
     12 C10         0.2361   -3.5891   -1.4554 C.3       1 <0>         0.1661
     13 H2          1.1200   -3.7379   -2.0756 H         1 <0>         0.1011
     14 C11        -0.6144   -4.8610   -1.4661 C.3       1 <0>         0.0449
     15 O1         -1.7110   -4.7083   -0.5627 O.3       1 <0>        -0.3015
     16 C12        -2.5699   -5.7559   -0.4522 C.ar      1 <0>         0.0874
     17 C13        -3.6637   -5.6816    0.4011 C.ar      1 <0>        -0.0977
     18 C14        -4.5175   -6.7839    0.4793 C.ar      1 <0>        -0.0531
     19 C15        -4.2413   -7.9085   -0.2964 C.ar      1 <0>         0.0758
     20 N2         -3.1921   -7.9357   -1.0921 N.ar      1 <0>        -0.4418
     21 C16        -2.3684   -6.9109   -1.1949 C.ar      1 <0>         0.0206
     22 C17        -5.7002   -6.7586    1.3748 C.ar      1 <0>        -0.0325
     23 C18        -5.9691   -5.6251    2.1424 C.ar      1 <0>        -0.0819
     24 C19        -7.0678   -5.5993    2.9748 C.ar      1 <0>        -0.0953
     25 C20        -7.9072   -6.7015    3.0495 C.ar      1 <0>         0.0763
     26 C21        -7.6437   -7.8386    2.2842 C.ar      1 <0>         0.0411
     27 C22        -6.5441   -7.8639    1.4442 C.ar      1 <0>        -0.0647
     28 O2         -8.6166   -8.7424    2.5582 O.3       1 <0>        -0.2331
     29 C23        -9.4660   -8.2171    3.4550 C.2       1 <0>         0.6397
     30 N3         -9.0647   -6.9719    3.7782 N.am      1 <0>        -0.6468
     31 O3        -10.4464   -8.7778    3.9055 O.2       1 <0>        -0.4797
     32 N4         -0.5497   -2.4718   -1.9849 N.pl3     1 <0>        -0.7313
     33 C24         0.0968   -1.3733   -2.5616 C.ar      1 <0>         0.2459
     34 C25         1.4847   -1.3464   -2.6365 C.ar      1 <0>        -0.1539
     35 C26         2.1267   -0.2644   -3.2053 C.ar      1 <0>        -0.0530
     36 C27         1.3856    0.7963   -3.7022 C.ar      1 <0>         0.0132
     37 C28        -0.0069    0.7733   -3.6291 C.ar      1 <0>         0.0874
     38 C29        -0.6488   -0.3163   -3.0624 C.ar      1 <0>        -0.1617
     39 O4         -0.4585    1.9249   -4.1837 O.3       1 <0>        -0.2391
     40 C30         0.5881    2.6574   -4.5956 C.2       1 <0>         0.6372
     41 N5          1.7323    2.0012   -4.3188 N.am      1 <0>        -0.6458
     42 O5          0.5152    3.7447   -5.1354 O.2       1 <0>        -0.4959
     43 H3         -0.9613    1.8849    0.0259 H         1 <0>         0.1162
     44 H4          1.1388    3.1630    0.0081 H         1 <0>         0.1182
     45 H5          3.3028    2.0064   -0.0198 H         1 <0>         0.1132
     46 H6         -0.9246   -0.5587    0.0082 H         1 <0>         0.1152
     47 H7          3.5346   -3.0459   -0.0490 H         1 <0>         0.1661
     48 H8          1.1742   -4.1414    0.4036 H         1 <0>         0.0781
     49 H9         -0.2127   -3.0396    0.5787 H         1 <0>         0.0844
     50 H10        -0.9944   -5.0354   -2.4727 H         1 <0>         0.0769
     51 H11        -0.0037   -5.7090   -1.1563 H         1 <0>         0.0832
     52 H12        -3.8486   -4.7946    0.9889 H         1 <0>         0.1480
     53 H13        -4.8945   -8.7669   -0.2442 H         1 <0>         0.1621
     54 H14        -1.5224   -6.9731   -1.8634 H         1 <0>         0.1596
     55 H15        -5.3157   -4.7671    2.0847 H         1 <0>         0.1454
     56 H16        -7.2748   -4.7214    3.5689 H         1 <0>         0.1433
     57 H17        -6.3391   -8.7400    0.8468 H         1 <0>         0.1485
     58 H18        -1.5182   -2.4936   -1.9356 H         1 <0>         0.4054
     59 H19         2.0617   -2.1729   -2.2489 H         1 <0>         0.1387
     60 H20         3.2050   -0.2444   -3.2627 H         1 <0>         0.1238
     61 H21        -1.7271   -0.3406   -3.0072 H         1 <0>         0.1342
     62 H22         2.6316    2.3089   -4.5123 H         1 <0>         0.4389
     63 H23        -9.5013   -6.3731    4.4040 H         1 <0>         0.4457
@<TRIPOS>BOND
     1    1    6 ar
     2    1    2 ar
     3    1   43 1
     4    2    3 ar
     5    2   44 1
     6    3    4 ar
     7    3   45 1
     8    4    9 1
     9    4    5 ar
    10    5    6 ar
    11    5    7 1
    12    6   46 1
    13    7    8 2
    14    7   11 1
    15    8    9 1
    16    8   47 1
    17    9   10 1
    18   11   12 1
    19   11   48 1
    20   11   49 1
    21   12   13 1
    22   12   14 1
    23   12   32 1
    24   14   15 1
    25   14   50 1
    26   14   51 1
    27   15   16 1
    28   16   21 ar
    29   16   17 ar
    30   17   18 ar
    31   17   52 1
    32   18   19 ar
    33   18   22 1
    34   19   20 ar
    35   19   53 1
    36   20   21 ar
    37   21   54 1
    38   22   27 ar
    39   22   23 ar
    40   23   24 ar
    41   23   55 1
    42   24   25 ar
    43   24   56 1
    44   25   30 1
    45   25   26 ar
    46   26   27 ar
    47   26   28 1
    48   27   57 1
    49   28   29 1
    50   29   30 am
    51   29   31 2
    52   30   63 1
    53   32   33 1
    54   32   58 1
    55   33   38 ar
    56   33   34 ar
    57   34   35 ar
    58   34   59 1
    59   35   36 ar
    60   35   60 1
    61   36   41 1
    62   36   37 ar
    63   37   38 ar
    64   37   39 1
    65   38   61 1
    66   39   40 1
    67   40   41 am
    68   40   42 2
    69   41   62 1
@<TRIPOS>MOLECULE
CHEMBL1096290
   55    58     0     0     0
SMALL
USER_CHARGES

@<TRIPOS>ATOM
      1 C1         -0.0187    1.5258    0.0104 C.3       1 <0>        -0.1687
      2 C2          0.0021   -0.0041    0.0020 C.3       1 <0>         0.0898
      3 N1          0.6878   -0.4765   -1.2033 N.pl3     1 <0>        -0.4486
      4 C3          0.1086   -0.7448   -2.4207 C.ar      1 <0>         0.0884
      5 C4         -1.1845   -0.6852   -2.9303 C.ar      1 <0>        -0.1133
      6 C5         -1.4044   -1.0413   -4.2449 C.ar      1 <0>         0.0632
      7 N2         -0.4160   -1.4362   -5.0265 N.ar      1 <0>        -0.4569
      8 C6          0.8373   -1.5137   -4.5989 C.ar      1 <0>         0.3419
      9 C7          1.1508   -1.1684   -3.2690 C.ar      1 <0>         0.0478
     10 N3          2.2863   -1.1397   -2.5500 N.2       1 <0>        -0.4394
     11 C8          2.0287   -0.7287   -1.3317 C.2       1 <0>         0.3602
     12 C9          3.0327   -0.5650   -0.2579 C.2       1 <0>         0.1203
     13 C10         4.4728   -0.8247   -0.3792 C.2       1 <0>         0.3636
     14 N4          5.0335   -0.5696    0.7708 N.2       1 <0>        -0.3375
     15 O1          4.0209   -0.1459    1.6660 O.3       1 <0>         0.0578
     16 N5          2.7916   -0.1585    0.9622 N.2       1 <0>        -0.2405
     17 N6          5.1261   -1.2663   -1.5222 N.pl3     1 <0>        -0.8014
     18 C11         1.8717   -1.9488   -5.4884 C.1       1 <0>        -0.1459
     19 C12         2.7197   -2.3055   -6.2177 C.1       1 <0>        -0.0944
     20 C13         3.7830   -2.7528   -7.1322 C.3       1 <0>         0.2363
     21 C14         5.1235   -2.7521   -6.3947 C.3       1 <0>        -0.1784
     22 C15         3.4716   -4.1681   -7.6229 C.3       1 <0>        -0.1403
     23 O2          3.8539   -1.8658   -8.2503 O.3       1 <0>        -0.5417
     24 C16        -2.8036   -0.9787   -4.8010 C.3       1 <0>         0.0667
     25 N7         -3.0042    0.3094   -5.4782 N.4       1 <0>        -0.3942
     26 C17        -2.1789    0.3737   -6.7114 C.3       1 <0>         0.0009
     27 C18        -2.8928    1.4559   -7.5597 C.3       1 <0>        -0.1461
     28 C19        -4.3880    1.1947   -7.2661 C.3       1 <0>        -0.1442
     29 C20        -4.4082    0.4372   -5.9255 C.3       1 <0>        -0.0079
     30 H1          1.0039    1.9031    0.0027 H         1 <0>         0.0678
     31 H2         -0.5459    1.8868   -0.8726 H         1 <0>         0.0617
     32 H3         -0.5289    1.8773    0.9072 H         1 <0>         0.0939
     33 H4          0.5293   -0.3651    0.8851 H         1 <0>         0.1168
     34 H5         -1.0205   -0.3814    0.0098 H         1 <0>         0.1054
     35 H6         -2.0050   -0.3649   -2.3053 H         1 <0>         0.1515
     36 H7          4.6233   -1.4303   -2.3354 H         1 <0>         0.4288
     37 H8          6.0851   -1.4108   -1.5075 H         1 <0>         0.4224
     38 H9          5.0694   -3.4287   -5.5418 H         1 <0>         0.0750
     39 H10         5.9109   -3.0833   -7.0718 H         1 <0>         0.0831
     40 H11         5.3453   -1.7438   -6.0451 H         1 <0>         0.0658
     41 H12         2.5166   -4.1686   -8.1483 H         1 <0>         0.0690
     42 H13         4.2590   -4.4993   -8.3001 H         1 <0>         0.0820
     43 H14         3.4175   -4.8447   -6.7701 H         1 <0>         0.0776
     44 H15         4.0486   -0.9487   -8.0131 H         1 <0>         0.3829
     45 H16        -2.9478   -1.7904   -5.5141 H         1 <0>         0.1497
     46 H17        -3.5226   -1.0776   -3.9878 H         1 <0>         0.1466
     47 H18        -1.1594    0.6797   -6.4765 H         1 <0>         0.1295
     48 H19        -2.1842   -0.5858   -7.2284 H         1 <0>         0.1396
     49 H20        -2.6043    2.4549   -7.2326 H         1 <0>         0.0955
     50 H21        -2.6782    1.3189   -8.6196 H         1 <0>         0.1172
     51 H22        -4.9263    2.1382   -7.1756 H         1 <0>         0.1048
     52 H23        -4.8268    0.5819   -8.0535 H         1 <0>         0.1050
     53 H24        -4.8451   -0.5517   -6.0643 H         1 <0>         0.1336
     54 H25        -4.9826    0.9999   -5.1896 H         1 <0>         0.1331
     55 H26        -2.7659    1.0694   -4.8588 H         1 <0>         0.4240
@<TRIPOS>BOND
     1    1    2 1
     2    1   30 1
     3    1   31 1
     4    1   32 1
     5    2    3 1
     6    2   33 1
     7    2   34 1
     8    3   11 1
     9    3    4 1
    10    4    9 ar
    11    4    5 ar
    12    5    6 ar
    13    5   35 1
    14    6    7 ar
    15    6   24 1
    16    7    8 ar
    17    8    9 ar
    18    8   18 1
    19    9   10 1
    20   10   11 2
    21   11   12 1
    22   12   16 2
    23   12   13 1
    24   13   14 2
    25   13   17 1
    26   14   15 1
    27   15   16 1
    28   17   36 1
    29   17   37 1
    30   18   19 3
    31   19   20 1
    32   20   21 1
    33   20   22 1
    34   20   23 1
    35   21   38 1
    36   21   39 1
    37   21   40 1
    38   22   41 1
    39   22   42 1
    40   22   43 1
    41   23   44 1
    42   24   25 1
    43   24   45 1
    44   24   46 1
    45   25   29 1
    46   25   26 1
    47   25   55 1
    48   26   27 1
    49   26   47 1
    50   26   48 1
    51   27   28 1
    52   27   49 1
    53   27   50 1
    54   28   29 1
    55   28   51 1
    56   28   52 1
    57   29   53 1
    58   29   54 1
@<TRIPOS>MOLECULE
CHEMBL206819
   53    57     0     0     0
SMALL
USER_CHARGES

@<TRIPOS>ATOM
      1 C1         -0.0165    1.3620    0.0095 C.ar      1 <0>        -0.1190
      2 C2          1.1697    2.0834    0.0021 C.ar      1 <0>        -0.0931
      3 C3          2.3856    1.4362   -0.0134 C.ar      1 <0>        -0.1109
      4 C4          2.4281    0.0456   -0.0212 C.ar      1 <0>         0.0986
      5 C5          1.2234   -0.6807   -0.0132 C.ar      1 <0>        -0.1172
      6 C6          0.0021   -0.0041    0.0020 C.ar      1 <0>        -0.1141
      7 C7          1.6036   -2.0953   -0.0245 C.2       1 <0>        -0.2379
      8 C8          2.9451   -2.1410   -0.0380 C.2       1 <0>         0.1040
      9 N1          3.4551   -0.8713   -0.0363 N.pl3     1 <0>        -0.5844
     10 H1          4.3995   -0.6501   -0.0442 H         1 <0>         0.4266
     11 C9          0.6664   -3.2754   -0.0210 C.3       1 <0>        -0.0555
     12 C10         0.2361   -3.5891   -1.4554 C.3       1 <0>         0.0435
     13 H2          1.1200   -3.7379   -2.0756 H         1 <0>         0.1530
     14 C11        -0.6144   -4.8610   -1.4661 C.3       1 <0>         0.0250
     15 O1         -0.9189   -5.2190   -2.8156 O.3       1 <0>        -0.3221
     16 C12        -1.6731   -6.3340   -3.0029 C.ar      1 <0>         0.0574
     17 C13        -1.9981   -6.7388   -4.2711 C.ar      1 <0>        -0.0842
     18 C14        -2.7805   -7.8996   -4.4173 C.ar      1 <0>        -0.0625
     19 C15        -3.1499   -8.3719   -5.6855 C.ar      1 <0>        -0.0917
     20 C16        -3.9190   -9.5163   -5.7867 C.ar      1 <0>        -0.0229
     21 C17        -4.3288  -10.2027   -4.6321 C.ar      1 <0>        -0.0904
     22 C18        -3.9813   -9.7603   -3.3963 C.ar      1 <0>        -0.0752
     23 C19        -3.1987   -8.5991   -3.2570 C.ar      1 <0>         0.1074
     24 N2         -2.8477   -8.1516   -2.0475 N.ar      1 <0>        -0.4280
     25 C20        -2.1149   -7.0747   -1.9028 C.ar      1 <0>         0.0672
     26 C21        -4.3145  -10.0222   -7.1237 C.ar      1 <0>        -0.0129
     27 C22        -3.9153   -9.3606   -8.2887 C.ar      1 <0>        -0.1637
     28 C23        -4.3054   -9.8653   -9.5121 C.ar      1 <0>         0.1060
     29 N3         -5.0441  -10.9556   -9.5905 N.ar      1 <0>        -0.4799
     30 C24        -5.4418  -11.6096   -8.5159 C.ar      1 <0>         0.1076
     31 C25        -5.0917  -11.1769   -7.2535 C.ar      1 <0>        -0.1604
     32 N4         -0.5518   -2.4687   -1.9863 N.4       1 <0>        -0.6362
     33 H3         -0.9613    1.8849    0.0259 H         1 <0>         0.1312
     34 H4          1.1388    3.1630    0.0081 H         1 <0>         0.1353
     35 H5          3.3028    2.0064   -0.0198 H         1 <0>         0.1295
     36 H6         -0.9246   -0.5587    0.0082 H         1 <0>         0.1148
     37 H7          3.5346   -3.0459   -0.0490 H         1 <0>         0.1792
     38 H8          1.1742   -4.1414    0.4036 H         1 <0>         0.1218
     39 H9         -0.2127   -3.0396    0.5787 H         1 <0>         0.0999
     40 H10        -0.0618   -5.6715   -0.9910 H         1 <0>         0.1140
     41 H11        -1.5405   -4.6834   -0.9195 H         1 <0>         0.0920
     42 H12        -1.6635   -6.1826   -5.1343 H         1 <0>         0.1502
     43 H13        -2.8366   -7.8458   -6.5752 H         1 <0>         0.1403
     44 H14        -4.9294  -11.0951   -4.7284 H         1 <0>         0.1414
     45 H15        -4.3058  -10.3004   -2.5192 H         1 <0>         0.1457
     46 H16        -1.8490   -6.7489   -0.9080 H         1 <0>         0.1621
     47 H17        -3.3108   -8.4674   -8.2319 H         1 <0>         0.1371
     48 H18        -4.0022   -9.3609  -10.4177 H         1 <0>         0.1609
     49 H19        -6.0461  -12.4979   -8.6262 H         1 <0>         0.1625
     50 H20        -5.4166  -11.7199   -6.3783 H         1 <0>         0.1409
     51 H21        -0.8356   -2.6756   -2.9322 H         1 <0>         0.4393
     52 H22        -1.3700   -2.3311   -1.4122 H         1 <0>         0.4299
     53 H23         0.0090   -1.6300   -1.9793 H         1 <0>         0.4382
@<TRIPOS>BOND
     1    1    6 ar
     2    1    2 ar
     3    1   33 1
     4    2    3 ar
     5    2   34 1
     6    3    4 ar
     7    3   35 1
     8    4    9 1
     9    4    5 ar
    10    5    6 ar
    11    5    7 1
    12    6   36 1
    13    7    8 2
    14    7   11 1
    15    8    9 1
    16    8   37 1
    17    9   10 1
    18   11   12 1
    19   11   38 1
    20   11   39 1
    21   12   13 1
    22   12   14 1
    23   12   32 1
    24   14   15 1
    25   14   40 1
    26   14   41 1
    27   15   16 1
    28   16   25 ar
    29   16   17 ar
    30   17   18 ar
    31   17   42 1
    32   18   23 ar
    33   18   19 ar
    34   19   20 ar
    35   19   43 1
    36   20   21 ar
    37   20   26 1
    38   21   22 ar
    39   21   44 1
    40   22   23 ar
    41   22   45 1
    42   23   24 ar
    43   24   25 ar
    44   25   46 1
    45   26   31 ar
    46   26   27 ar
    47   27   28 ar
    48   27   47 1
    49   28   29 ar
    50   28   48 1
    51   29   30 ar
    52   30   31 ar
    53   30   49 1
    54   31   50 1
    55   32   51 1
    56   32   52 1
    57   32   53 1
@<TRIPOS>MOLECULE
CHEMBL1081974
   49    52     0     0     0
SMALL
USER_CHARGES

@<TRIPOS>ATOM
      1 C1         -0.0167    1.3781    0.0096 C.ar      1 <0>        -0.1414
      2 C2          1.1709    2.0855    0.0021 C.ar      1 <0>        -0.0581
      3 C3          2.3773    1.4107   -0.0130 C.ar      1 <0>        -0.1627
      4 C4          2.3960    0.0285   -0.0201 C.ar      1 <0>        -0.0558
      5 C5          1.2085   -0.6789   -0.0117 C.ar      1 <0>        -0.1023
      6 C6          0.0021   -0.0041    0.0020 C.ar      1 <0>        -0.0989
      7 C7         -1.2926   -0.7753    0.0107 C.3       1 <0>        -0.0995
      8 C8         -1.7450   -1.0285   -1.4288 C.3       1 <0>         0.0244
      9 H1         -0.9463   -1.5264   -1.9784 H         1 <0>         0.1552
     10 C9         -2.9907   -1.9168   -1.4231 C.3       1 <0>         0.1129
     11 N1         -3.4936   -2.0615   -2.7914 N.pl3     1 <0>        -0.7047
     12 C10        -4.6204   -2.8258   -3.0371 C.2       1 <0>         0.2835
     13 N2         -5.3657   -3.4845   -2.1723 N.2       1 <0>        -0.5626
     14 C11        -6.4173   -4.1734   -2.5623 C.2       1 <0>         0.0979
     15 C12        -6.6934   -4.1691   -3.9044 C.2       1 <0>        -0.1866
     16 S1         -5.3728   -3.1318   -4.5110 S.3       1 <0>         0.1388
     17 C13        -7.7847   -4.8340   -4.6440 C.ar      1 <0>         0.0329
     18 C14        -8.7334   -5.6048   -3.9466 C.ar      1 <0>        -0.0902
     19 C15        -9.7465   -6.2266   -4.6016 C.ar      1 <0>        -0.0559
     20 C16        -9.8598   -6.1050   -5.9985 C.ar      1 <0>         0.0593
     21 C17        -8.9073   -5.3286   -6.7109 C.ar      1 <0>        -0.0593
     22 C18        -7.8715   -4.6900   -6.0205 C.ar      1 <0>        -0.0979
     23 C19        -9.0479   -5.2256   -8.1092 C.ar      1 <0>        -0.0933
     24 C20       -10.0967   -5.8830   -8.6880 C.ar      1 <0>         0.0198
     25 N3        -10.9438   -6.5884   -7.9507 N.ar      1 <0>        -0.2160
     26 N4        -10.8435   -6.7022   -6.6752 N.ar      1 <0>        -0.1955
     27 N5         -2.0599    0.2523   -2.0756 N.4       1 <0>        -0.6403
     28 C21         3.6720    2.1819   -0.0222 C.3       1 <0>         0.5037
     29 F1          4.0857    2.4144    1.2938 F         1 <0>        -0.1687
     30 F2          4.6506    1.4423   -0.6949 F         1 <0>        -0.1714
     31 F3          3.4816    3.4050   -0.6742 F         1 <0>        -0.1728
     32 H2         -0.9591    1.9053    0.0259 H         1 <0>         0.1371
     33 H3          1.1563    3.1654    0.0076 H         1 <0>         0.1472
     34 H4          3.3385   -0.4987   -0.0326 H         1 <0>         0.1480
     35 H5          1.2231   -1.7588   -0.0179 H         1 <0>         0.1451
     36 H6         -1.1443   -1.7285    0.5180 H         1 <0>         0.1328
     37 H7         -2.0551   -0.1993    0.5352 H         1 <0>         0.1105
     38 H8         -2.7351   -2.8985   -1.0242 H         1 <0>         0.1179
     39 H9         -3.7596   -1.4603   -0.7997 H         1 <0>         0.1008
     40 H10        -3.0366   -1.6214   -3.5252 H         1 <0>         0.4109
     41 H11        -7.0321   -4.7156   -1.8592 H         1 <0>         0.1836
     42 H12        -8.6538   -5.7034   -2.8741 H         1 <0>         0.1420
     43 H13       -10.4653   -6.8148   -4.0505 H         1 <0>         0.1532
     44 H14        -7.1453   -4.0949   -6.5542 H         1 <0>         0.1355
     45 H15        -8.3531   -4.6484   -8.7012 H         1 <0>         0.1558
     46 H16       -10.2376   -5.8272   -9.7574 H         1 <0>         0.1772
     47 H17        -2.7994    0.7132   -1.5668 H         1 <0>         0.4378
     48 H18        -1.2384    0.8381   -2.0794 H         1 <0>         0.4383
     49 H19        -2.3583    0.0853   -3.0249 H         1 <0>         0.4319
@<TRIPOS>BOND
     1    1    6 ar
     2    1    2 ar
     3    1   32 1
     4    2    3 ar
     5    2   33 1
     6    3    4 ar
     7    3   28 1
     8    4    5 ar
     9    4   34 1
    10    5    6 ar
    11    5   35 1
    12    6    7 1
    13    7    8 1
    14    7   36 1
    15    7   37 1
    16    8    9 1
    17    8   10 1
    18    8   27 1
    19   10   11 1
    20   10   38 1
    21   10   39 1
    22   11   12 1
    23   11   40 1
    24   12   16 1
    25   12   13 2
    26   13   14 1
    27   14   15 2
    28   14   41 1
    29   15   16 1
    30   15   17 1
    31   17   22 ar
    32   17   18 ar
    33   18   19 ar
    34   18   42 1
    35   19   20 ar
    36   19   43 1
    37   20   26 ar
    38   20   21 ar
    39   21   22 ar
    40   21   23 ar
    41   22   44 1
    42   23   24 ar
    43   23   45 1
    44   24   25 ar
    45   24   46 1
    46   25   26 ar
    47   27   47 1
    48   27   48 1
    49   27   49 1
    50   28   29 1
    51   28   30 1
    52   28   31 1
@<TRIPOS>MOLECULE
CHEMBL210954
   72    77     0     0     0
SMALL
USER_CHARGES

@<TRIPOS>ATOM
      1 C1         -0.0187    1.5258    0.0104 C.3       1 <0>        -0.1499
      2 C2          0.0021   -0.0041    0.0020 C.3       1 <0>        -0.0328
      3 C3          0.7421   -0.5109    1.2415 C.3       1 <0>        -0.1502
      4 C4         -1.4333   -0.5336    0.0129 C.3       1 <0>        -0.0431
      5 C5         -2.1387   -0.0476    1.2528 C.2       1 <0>        -0.0034
      6 C6         -2.8436    1.0929    1.3608 C.2       1 <0>        -0.2077
      7 C7         -3.3278    1.1510    2.6878 C.2       1 <0>        -0.2127
      8 C8         -2.8899    0.0425    3.3114 C.2       1 <0>        -0.0435
      9 O1         -2.1750   -0.6826    2.4356 O.3       1 <0>        -0.1747
     10 C9          0.7182   -0.4975   -1.2568 C.3       1 <0>        -0.0756
     11 C10         2.1085    0.0900   -1.3399 C.ar      1 <0>        -0.1240
     12 C11         3.2103   -0.0015   -0.5234 C.ar      1 <0>        -0.0450
     13 C12         4.3853    0.6677   -0.8662 C.ar      1 <0>        -0.0830
     14 C13         4.4299    1.4243   -2.0363 C.ar      1 <0>        -0.0636
     15 C14         3.3219    1.5109   -2.8489 C.ar      1 <0>        -0.1368
     16 C15         2.1456    0.8426   -2.5084 C.ar      1 <0>         0.1664
     17 N1          0.9141    0.7806   -3.1603 N.am      1 <0>        -0.6598
     18 C16         0.0252    0.0207   -2.4989 C.2       1 <0>         0.5343
     19 O2         -1.1179   -0.2073   -2.8341 O.2       1 <0>        -0.4823
     20 C17         5.5796    0.5754    0.0091 C.ar      1 <0>        -0.0337
     21 C18         6.7577    1.2477   -0.3253 C.ar      1 <0>        -0.0986
     22 C19         7.8474    1.1289    0.5274 C.ar      1 <0>         0.0702
     23 C20         7.7292    0.3529    1.6726 C.ar      1 <0>         0.0196
     24 N2          6.6018   -0.2686    1.9572 N.ar      1 <0>        -0.4370
     25 C21         5.5417   -0.1787    1.1803 C.ar      1 <0>         0.0843
     26 O3          9.0152    1.7640    0.2442 O.3       1 <0>        -0.3227
     27 C22        10.0889    1.5916    1.1712 C.3       1 <0>         0.0263
     28 C23        11.3108    2.3753    0.6879 C.3       1 <0>         0.0434
     29 H1         11.5603    2.0690   -0.3280 H         1 <0>         0.1529
     30 C24        12.4968    2.0917    1.6119 C.3       1 <0>        -0.0556
     31 C25        13.7302    2.7648    1.0672 C.2       1 <0>        -0.2377
     32 C26        14.6620    2.2067    0.2783 C.2       1 <0>         0.1040
     33 N3         15.6349    3.1231   -0.0149 N.pl3     1 <0>        -0.5845
     34 H2         16.4125    2.9523   -0.5689 H         1 <0>         0.4265
     35 C27        15.3455    4.3239    0.5936 C.ar      1 <0>         0.0987
     36 C28        14.1364    4.1540    1.2929 C.ar      1 <0>        -0.1171
     37 C29        13.5898    5.2207    2.0085 C.ar      1 <0>        -0.1141
     38 C30        14.2311    6.4274    2.0230 C.ar      1 <0>        -0.1190
     39 C31        15.4218    6.6013    1.3314 C.ar      1 <0>        -0.0932
     40 C32        15.9837    5.5593    0.6263 C.ar      1 <0>        -0.1109
     41 N4         11.0090    3.8129    0.7057 N.4       1 <0>        -0.6363
     42 H3          1.0039    1.9031    0.0027 H         1 <0>         0.0601
     43 H4         -0.5459    1.8868   -0.8726 H         1 <0>         0.0526
     44 H5         -0.5289    1.8773    0.9072 H         1 <0>         0.0715
     45 H6          0.2319   -0.1594    2.1383 H         1 <0>         0.0676
     46 H7          0.7568   -1.6008    1.2356 H         1 <0>         0.0636
     47 H8          1.7647   -0.1336    1.2338 H         1 <0>         0.0638
     48 H9         -1.9605   -0.1726   -0.8702 H         1 <0>         0.1104
     49 H10        -1.4185   -1.6235    0.0069 H         1 <0>         0.0860
     50 H11        -3.0076    1.8242    0.5832 H         1 <0>         0.1445
     51 H12        -3.9329    1.9351    3.1184 H         1 <0>         0.1473
     52 H13        -3.0836   -0.2216    4.3405 H         1 <0>         0.2020
     53 H14         0.7602   -1.5866   -1.2691 H         1 <0>         0.1315
     54 H15         3.1664   -0.5896    0.3814 H         1 <0>         0.1400
     55 H16         5.3370    1.9447   -2.3062 H         1 <0>         0.1331
     56 H17         3.3634    2.0990   -3.7537 H         1 <0>         0.1341
     57 H18         0.7213    1.2346   -3.9955 H         1 <0>         0.4173
     58 H19         6.8195    1.8439   -1.2236 H         1 <0>         0.1480
     59 H20         8.5731    0.2566    2.3396 H         1 <0>         0.1576
     60 H21         4.6351   -0.6992    1.4514 H         1 <0>         0.1659
     61 H22         9.7854    1.9599    2.1512 H         1 <0>         0.0921
     62 H23        10.3408    0.5335    1.2427 H         1 <0>         0.1140
     63 H24        12.2819    2.4783    2.6081 H         1 <0>         0.0999
     64 H25        12.6646    1.0161    1.6680 H         1 <0>         0.1219
     65 H26        14.6463    1.1854   -0.0726 H         1 <0>         0.1791
     66 H27        12.6632    5.0929    2.5484 H         1 <0>         0.1149
     67 H28        13.8078    7.2524    2.5767 H         1 <0>         0.1312
     68 H29        15.9165    7.5611    1.3518 H         1 <0>         0.1353
     69 H30        16.9100    5.7049    0.0904 H         1 <0>         0.1294
     70 H31        10.7780    4.0964    1.6461 H         1 <0>         0.4299
     71 H32        11.8148    4.3297    0.3870 H         1 <0>         0.4381
     72 H33        10.2269    3.9999    0.0964 H         1 <0>         0.4391
@<TRIPOS>BOND
     1    1    2 1
     2    1   42 1
     3    1   43 1
     4    1   44 1
     5    2    3 1
     6    2    4 1
     7    2   10 1
     8    3   45 1
     9    3   46 1
    10    3   47 1
    11    4    5 1
    12    4   48 1
    13    4   49 1
    14    5    9 1
    15    5    6 2
    16    6    7 1
    17    6   50 1
    18    7    8 2
    19    7   51 1
    20    8    9 1
    21    8   52 1
    22   10   18 1
    23   10   11 1
    24   10   53 1
    25   11   16 ar
    26   11   12 ar
    27   12   13 ar
    28   12   54 1
    29   13   14 ar
    30   13   20 1
    31   14   15 ar
    32   14   55 1
    33   15   16 ar
    34   15   56 1
    35   16   17 1
    36   17   18 am
    37   17   57 1
    38   18   19 2
    39   20   25 ar
    40   20   21 ar
    41   21   22 ar
    42   21   58 1
    43   22   23 ar
    44   22   26 1
    45   23   24 ar
    46   23   59 1
    47   24   25 ar
    48   25   60 1
    49   26   27 1
    50   27   28 1
    51   27   61 1
    52   27   62 1
    53   28   29 1
    54   28   30 1
    55   28   41 1
    56   30   31 1
    57   30   63 1
    58   30   64 1
    59   31   36 1
    60   31   32 2
    61   32   33 1
    62   32   65 1
    63   33   34 1
    64   33   35 1
    65   35   40 ar
    66   35   36 ar
    67   36   37 ar
    68   37   38 ar
    69   37   66 1
    70   38   39 ar
    71   38   67 1
    72   39   40 ar
    73   39   68 1
    74   40   69 1
    75   41   70 1
    76   41   71 1
    77   41   72 1
@<TRIPOS>MOLECULE
CHEMBL210954
   72    77     0     0     0
SMALL
USER_CHARGES

@<TRIPOS>ATOM
      1 C1         -0.0187    1.5258    0.0104 C.3       1 <0>        -0.1546
      2 C2          0.0021   -0.0041    0.0020 C.3       1 <0>        -0.0327
      3 C3          0.7421   -0.5109    1.2415 C.3       1 <0>        -0.1457
      4 C4         -1.4333   -0.5336    0.0129 C.3       1 <0>        -0.0445
      5 C5         -2.1387   -0.0476    1.2528 C.2       1 <0>        -0.0028
      6 C6         -2.8436    1.0929    1.3608 C.2       1 <0>        -0.2085
      7 C7         -3.3278    1.1510    2.6878 C.2       1 <0>        -0.2130
      8 C8         -2.8899    0.0425    3.3114 C.2       1 <0>        -0.0437
      9 O1         -2.1750   -0.6826    2.4356 O.3       1 <0>        -0.1747
     10 C9          0.7182   -0.4975   -1.2568 C.3       1 <0>        -0.0751
     11 C10         2.1673   -0.0674   -1.2448 C.ar      1 <0>        -0.1245
     12 C11         2.7744    1.1656   -1.2297 C.ar      1 <0>        -0.0448
     13 C12         4.1666    1.2533   -1.2218 C.ar      1 <0>        -0.0835
     14 C13         4.9296    0.0866   -1.2293 C.ar      1 <0>        -0.0635
     15 C14         4.3138   -1.1447   -1.2445 C.ar      1 <0>        -0.1371
     16 C15         2.9217   -1.2352   -1.2524 C.ar      1 <0>         0.1668
     17 N1          2.0834   -2.3499   -1.2680 N.am      1 <0>        -0.6601
     18 C16         0.7837   -2.0098   -1.2715 C.2       1 <0>         0.5337
     19 O2         -0.1601   -2.7716   -1.2841 O.2       1 <0>        -0.4815
     20 C17         4.8310    2.5797   -1.2059 C.ar      1 <0>        -0.0335
     21 C18         6.2247    2.6749   -1.2038 C.ar      1 <0>        -0.0987
     22 C19         6.7976    3.9399   -1.1887 C.ar      1 <0>         0.0702
     23 C20         5.9724    5.0564   -1.1763 C.ar      1 <0>         0.0195
     24 N2          4.6601    4.9297   -1.1784 N.ar      1 <0>        -0.4370
     25 C21         4.0744    3.7499   -1.1988 C.ar      1 <0>         0.0842
     26 O3          8.1492    4.0832   -1.1855 O.3       1 <0>        -0.3227
     27 C22         8.6600    5.4177   -1.1697 C.3       1 <0>         0.0263
     28 C23        10.1895    5.3783   -1.1684 C.3       1 <0>         0.0434
     29 H1         10.5366    4.7701   -0.3331 H         1 <0>         0.1529
     30 C24        10.7362    6.8001   -1.0258 C.3       1 <0>        -0.0555
     31 C25        12.2373    6.7510   -0.9012 C.2       1 <0>        -0.2376
     32 C26        12.9438    6.7408    0.2401 C.2       1 <0>         0.1040
     33 N3         14.2823    6.6924   -0.0401 N.pl3     1 <0>        -0.5845
     34 H2         14.9902    6.6764    0.6229 H         1 <0>         0.4266
     35 C27        14.4746    6.6697   -1.4033 C.ar      1 <0>         0.0988
     36 C28        13.2018    6.6990   -2.0025 C.ar      1 <0>        -0.1171
     37 C29        13.0862    6.6792   -3.3935 C.ar      1 <0>        -0.1141
     38 C30        14.2115    6.6278   -4.1671 C.ar      1 <0>        -0.1190
     39 C31        15.4691    6.5945   -3.5809 C.ar      1 <0>        -0.0932
     40 C32        15.6065    6.6226   -2.2101 C.ar      1 <0>        -0.1110
     41 N4         10.6653    4.7949   -2.4299 N.4       1 <0>        -0.6363
     42 H3          1.0039    1.9031    0.0027 H         1 <0>         0.0637
     43 H4         -0.5459    1.8868   -0.8726 H         1 <0>         0.0634
     44 H5         -0.5289    1.8773    0.9072 H         1 <0>         0.0721
     45 H6          0.2319   -0.1594    2.1383 H         1 <0>         0.0671
     46 H7          0.7568   -1.6008    1.2356 H         1 <0>         0.0528
     47 H8          1.7647   -0.1336    1.2338 H         1 <0>         0.0603
     48 H9         -1.9605   -0.1726   -0.8702 H         1 <0>         0.0974
     49 H10        -1.4185   -1.6235    0.0069 H         1 <0>         0.0995
     50 H11        -3.0076    1.8242    0.5832 H         1 <0>         0.1467
     51 H12        -3.9329    1.9351    3.1184 H         1 <0>         0.1476
     52 H13        -3.0836   -0.2216    4.3405 H         1 <0>         0.2014
     53 H14         0.2154   -0.1282   -2.1506 H         1 <0>         0.1314
     54 H15         2.1752    2.0642   -1.2242 H         1 <0>         0.1401
     55 H16         6.0078    0.1488   -1.2236 H         1 <0>         0.1330
     56 H17         4.9111   -2.0445   -1.2506 H         1 <0>         0.1341
     57 H18         2.4024   -3.2659   -1.2757 H         1 <0>         0.4173
     58 H19         6.8407    1.7878   -1.2132 H         1 <0>         0.1479
     59 H20         6.4119    6.0429   -1.1646 H         1 <0>         0.1576
     60 H21         2.9961    3.6888   -1.2048 H         1 <0>         0.1660
     61 H22         8.3110    5.9509   -2.0540 H         1 <0>         0.0921
     62 H23         8.3091    5.9305   -0.2742 H         1 <0>         0.1139
     63 H24        10.4635    7.3841   -1.9049 H         1 <0>         0.0999
     64 H25        10.3127    7.2646   -0.1354 H         1 <0>         0.1218
     65 H26        12.5188    6.7672    1.2326 H         1 <0>         0.1791
     66 H27        12.1108    6.7042   -3.8566 H         1 <0>         0.1149
     67 H28        14.1216    6.6125   -5.2433 H         1 <0>         0.1312
     68 H29        16.3491    6.5532   -4.2056 H         1 <0>         0.1353
     69 H30        16.5895    6.5951   -1.7635 H         1 <0>         0.1294
     70 H31        10.3440    5.3579   -3.2031 H         1 <0>         0.4300
     71 H32        11.6740    4.7689   -2.4291 H         1 <0>         0.4381
     72 H33        10.3048    3.8572   -2.5239 H         1 <0>         0.4391
@<TRIPOS>BOND
     1    1    2 1
     2    1   42 1
     3    1   43 1
     4    1   44 1
     5    2    3 1
     6    2    4 1
     7    2   10 1
     8    3   45 1
     9    3   46 1
    10    3   47 1
    11    4    5 1
    12    4   48 1
    13    4   49 1
    14    5    9 1
    15    5    6 2
    16    6    7 1
    17    6   50 1
    18    7    8 2
    19    7   51 1
    20    8    9 1
    21    8   52 1
    22   10   18 1
    23   10   11 1
    24   10   53 1
    25   11   16 ar
    26   11   12 ar
    27   12   13 ar
    28   12   54 1
    29   13   14 ar
    30   13   20 1
    31   14   15 ar
    32   14   55 1
    33   15   16 ar
    34   15   56 1
    35   16   17 1
    36   17   18 am
    37   17   57 1
    38   18   19 2
    39   20   25 ar
    40   20   21 ar
    41   21   22 ar
    42   21   58 1
    43   22   23 ar
    44   22   26 1
    45   23   24 ar
    46   23   59 1
    47   24   25 ar
    48   25   60 1
    49   26   27 1
    50   27   28 1
    51   27   61 1
    52   27   62 1
    53   28   29 1
    54   28   30 1
    55   28   41 1
    56   30   31 1
    57   30   63 1
    58   30   64 1
    59   31   36 1
    60   31   32 2
    61   32   33 1
    62   32   65 1
    63   33   34 1
    64   33   35 1
    65   35   40 ar
    66   35   36 ar
    67   36   37 ar
    68   37   38 ar
    69   37   66 1
    70   38   39 ar
    71   38   67 1
    72   39   40 ar
    73   39   68 1
    74   40   69 1
    75   41   70 1
    76   41   71 1
    77   41   72 1
@<TRIPOS>MOLECULE
CHEMBL504537
   40    44     0     0     0
SMALL
USER_CHARGES

@<TRIPOS>ATOM
      1 C1         -0.0167    1.3820    0.0096 C.ar      1 <0>        -0.0941
      2 C2          1.1640    2.0993    0.0022 C.ar      1 <0>        -0.0966
      3 C3          2.3848    1.4420   -0.0126 C.ar      1 <0>        -0.0616
      4 C4          2.4202    0.0530   -0.0206 C.ar      1 <0>        -0.1266
      5 C5          1.2182   -0.6771   -0.0135 C.ar      1 <0>        -0.1220
      6 C6          0.0021   -0.0041    0.0020 C.ar      1 <0>        -0.0632
      7 C7          1.2717   -2.1514   -0.0255 C.2       1 <0>         0.4240
      8 O1          0.2397   -2.7922   -0.0162 O.2       1 <0>        -0.4080
      9 C8          2.5756   -2.8569   -0.0494 C.2       1 <0>        -0.1188
     10 C9          3.7179   -2.1583   -0.0520 C.2       1 <0>        -0.1018
     11 C10         3.7020   -0.6789   -0.0361 C.2       1 <0>         0.4259
     12 O2          4.7494   -0.0633   -0.0362 O.2       1 <0>        -0.3989
     13 C11         5.0540   -2.8536   -0.0685 C.3       1 <0>         0.1507
     14 C12         5.6357   -2.8864    1.3577 C.3       1 <0>        -0.1410
     15 C13         7.1558   -2.6682    1.1510 C.3       1 <0>        -0.1189
     16 C14         7.1995   -1.6356   -0.0030 C.3       1 <0>        -0.1176
     17 C15         6.0443   -2.0599   -0.9343 C.3       1 <0>        -0.1106
     18 O3          4.9203   -4.1789   -0.5666 O.3       1 <0>        -0.3406
     19 C16         3.9551   -4.9621    0.1398 C.3       1 <0>         0.0514
     20 H1          4.2136   -5.0988    1.1899 H         1 <0>         0.1241
     21 C17         2.5544   -4.3583   -0.0748 C.3       1 <0>         0.1012
     22 H2          1.8748   -4.7280    0.6931 H         1 <0>         0.1244
     23 O4          2.1256   -4.8371   -1.3533 O.3       1 <0>        -0.3195
     24 C18         2.7994   -5.9398   -1.7165 C.2       1 <0>         0.4869
     25 O5          2.6433   -6.5451   -2.7505 O.2       1 <0>        -0.4429
     26 C19         3.7893   -6.3071   -0.6243 C.3       1 <0>        -0.1780
     27 H3         -0.9615    1.9051    0.0260 H         1 <0>         0.1415
     28 H4          1.1360    3.1789    0.0076 H         1 <0>         0.1417
     29 H5          3.3048    2.0077   -0.0182 H         1 <0>         0.1464
     30 H6         -0.9245   -0.5589    0.0085 H         1 <0>         0.1462
     31 H7          5.2133   -2.0827    1.9609 H         1 <0>         0.0789
     32 H8          5.4489   -3.8537    1.8241 H         1 <0>         0.0797
     33 H9          7.6134   -2.2599    2.0521 H         1 <0>         0.0737
     34 H10         7.6428   -3.5977    0.8562 H         1 <0>         0.0738
     35 H11         7.0312   -0.6288    0.3793 H         1 <0>         0.0791
     36 H12         8.1529   -1.6907   -0.5284 H         1 <0>         0.0717
     37 H13         6.4248   -2.6892   -1.7388 H         1 <0>         0.0817
     38 H14         5.5551   -1.1782   -1.3484 H         1 <0>         0.0908
     39 H15         4.7383   -6.6289   -1.0531 H         1 <0>         0.1311
     40 H16         3.3774   -7.0760    0.0294 H         1 <0>         0.1356
@<TRIPOS>BOND
     1    1    6 ar
     2    1    2 ar
     3    1   27 1
     4    2    3 ar
     5    2   28 1
     6    3    4 ar
     7    3   29 1
     8    4   11 1
     9    4    5 ar
    10    5    6 ar
    11    5    7 1
    12    6   30 1
    13    7    8 2
    14    7    9 1
    15    9   21 1
    16    9   10 2
    17   10   11 1
    18   10   13 1
    19   11   12 2
    20   13   17 1
    21   13   14 1
    22   13   18 1
    23   14   15 1
    24   14   31 1
    25   14   32 1
    26   15   16 1
    27   15   33 1
    28   15   34 1
    29   16   17 1
    30   16   35 1
    31   16   36 1
    32   17   37 1
    33   17   38 1
    34   18   19 1
    35   19   20 1
    36   19   26 1
    37   19   21 1
    38   21   22 1
    39   21   23 1
    40   23   24 1
    41   24   25 2
    42   24   26 1
    43   26   39 1
    44   26   40 1
@<TRIPOS>MOLECULE
CHEMBL603675
   57    60     0     0     0
SMALL
USER_CHARGES

@<TRIPOS>ATOM
      1 C1         -0.0187    1.5258    0.0104 C.3       1 <0>        -0.1408
      2 C2          0.0021   -0.0041    0.0020 C.3       1 <0>        -0.0365
      3 C3          0.7421   -0.5109    1.2415 C.3       1 <0>        -0.1428
      4 C4         -1.4333   -0.5336    0.0129 C.3       1 <0>        -0.1498
      5 C5          0.7074   -0.4901   -1.2379 C.ar      1 <0>        -0.0466
      6 C6          0.0361   -1.2843   -2.1485 C.ar      1 <0>        -0.1090
      7 C7          0.6831   -1.7301   -3.2859 C.ar      1 <0>        -0.1035
      8 C8          2.0014   -1.3813   -3.5127 C.ar      1 <0>        -0.1318
      9 C9          2.6724   -0.5863   -2.6025 C.ar      1 <0>        -0.1382
     10 C10         2.0241   -0.1370   -1.4673 C.ar      1 <0>        -0.1046
     11 C11         2.7070   -1.8681   -4.7521 C.3       1 <0>        -0.0956
     12 C12         2.5119   -0.8545   -5.8815 C.3       1 <0>         0.0693
     13 C13         1.0176   -0.6965   -6.1722 C.3       1 <0>        -0.1544
     14 C14         0.4302   -2.0572   -6.5599 C.3       1 <0>         0.1452
     15 N1          1.2079   -2.6064   -7.6789 N.pl3     1 <0>        -0.6721
     16 C15         2.6662   -2.7172   -7.5387 C.3       1 <0>         0.1454
     17 C16         3.2286   -1.3492   -7.1400 C.3       1 <0>        -0.1509
     18 C17         0.5782   -3.0124   -8.8436 C.ar      1 <0>         0.2848
     19 C18         0.3806   -2.1376   -9.8995 C.ar      1 <0>        -0.2187
     20 C19        -0.2529   -2.5685  -11.0571 C.ar      1 <0>         0.1991
     21 N2         -0.6931   -3.7894  -11.2259 N.ar      1 <0>        -0.4681
     22 C20        -0.5632   -4.7324  -10.2782 C.ar      1 <0>         0.2730
     23 C21         0.1000   -4.3834   -9.0122 C.ar      1 <0>        -0.2718
     24 C22         0.1020   -5.5240   -8.2381 C.2       1 <0>         0.1081
     25 N3         -0.4925   -6.4969   -8.9410 N.pl3     1 <0>        -0.4104
     26 N4         -0.9047   -6.0038  -10.1842 N.2       1 <0>        -0.2760
     27 H1         -0.6253   -7.4064   -8.6309 H         1 <0>         0.4521
     28 N5          3.0714    0.4422   -5.4774 N.4       1 <0>        -0.6360
     29 H2          1.0039    1.9031    0.0027 H         1 <0>         0.0570
     30 H3         -0.5459    1.8868   -0.8726 H         1 <0>         0.0565
     31 H4         -0.5289    1.8773    0.9072 H         1 <0>         0.0663
     32 H5          0.2319   -0.1594    2.1383 H         1 <0>         0.0662
     33 H6          0.7568   -1.6008    1.2356 H         1 <0>         0.0584
     34 H7          1.7647   -0.1336    1.2338 H         1 <0>         0.0577
     35 H8         -1.9605   -0.1726   -0.8702 H         1 <0>         0.0597
     36 H9         -1.4185   -1.6235    0.0069 H         1 <0>         0.0605
     37 H10        -1.9435   -0.1821    0.9097 H         1 <0>         0.0659
     38 H11        -0.9938   -1.5568   -1.9713 H         1 <0>         0.1358
     39 H12         0.1588   -2.3512   -3.9970 H         1 <0>         0.1287
     40 H13         3.7024   -0.3141   -2.7796 H         1 <0>         0.1210
     41 H14         2.5473    0.4872   -0.7580 H         1 <0>         0.1297
     42 H15         3.7711   -1.9799   -4.5441 H         1 <0>         0.0982
     43 H16         2.2923   -2.8305   -5.0520 H         1 <0>         0.1209
     44 H17         0.5116   -0.3220   -5.2824 H         1 <0>         0.0991
     45 H18         0.8792    0.0068   -6.9933 H         1 <0>         0.0936
     46 H19         0.4862   -2.7353   -5.7084 H         1 <0>         0.0686
     47 H20        -0.6093   -1.9333   -6.8633 H         1 <0>         0.0926
     48 H21         2.9045   -3.4492   -6.7670 H         1 <0>         0.0689
     49 H22         3.1020   -3.0289   -8.4879 H         1 <0>         0.0939
     50 H23         3.0693   -0.6397   -7.9520 H         1 <0>         0.0955
     51 H24         4.2961   -1.4392   -6.9391 H         1 <0>         0.0976
     52 H25         0.7208   -1.1155   -9.8215 H         1 <0>         0.1365
     53 H26        -0.3900   -1.8593  -11.8600 H         1 <0>         0.1667
     54 H27         0.5103   -5.6167   -7.2426 H         1 <0>         0.1869
     55 H28         4.0564    0.3383   -5.2851 H         1 <0>         0.4323
     56 H29         2.9428    1.1108   -6.2221 H         1 <0>         0.4336
     57 H30         2.5993    0.7683   -4.6474 H         1 <0>         0.4323
@<TRIPOS>BOND
     1    1    2 1
     2    1   29 1
     3    1   30 1
     4    1   31 1
     5    2    3 1
     6    2    4 1
     7    2    5 1
     8    3   32 1
     9    3   33 1
    10    3   34 1
    11    4   35 1
    12    4   36 1
    13    4   37 1
    14    5   10 ar
    15    5    6 ar
    16    6    7 ar
    17    6   38 1
    18    7    8 ar
    19    7   39 1
    20    8    9 ar
    21    8   11 1
    22    9   10 ar
    23    9   40 1
    24   10   41 1
    25   11   12 1
    26   11   42 1
    27   11   43 1
    28   12   17 1
    29   12   13 1
    30   12   28 1
    31   13   14 1
    32   13   44 1
    33   13   45 1
    34   14   15 1
    35   14   46 1
    36   14   47 1
    37   15   16 1
    38   15   18 1
    39   16   17 1
    40   16   48 1
    41   16   49 1
    42   17   50 1
    43   17   51 1
    44   18   23 ar
    45   18   19 ar
    46   19   20 ar
    47   19   52 1
    48   20   21 ar
    49   20   53 1
    50   21   22 ar
    51   22   23 ar
    52   22   26 2
    53   23   24 2
    54   24   54 1
    55   24   25 1
    56   25   27 1
    57   25   26 1
    58   28   55 1
    59   28   56 1
    60   28   57 1
@<TRIPOS>MOLECULE
CHEMBL596583
   62    67     0     0     0
SMALL
USER_CHARGES

@<TRIPOS>ATOM
      1 C1          5.2250   -4.9843   -5.0237 C.3       1 <0>        -0.0791
      2 C2          4.9992   -3.9936   -3.9108 C.2       1 <0>         0.1322
      3 C3          3.9693   -3.0221   -3.8656 C.ar      1 <0>        -0.0055
      4 C4          4.1285   -2.3147   -2.6552 C.ar      1 <0>         0.2707
      5 N1          5.2144   -2.8610   -2.0242 N.pl3     1 <0>        -0.4755
      6 H1          5.5727   -2.5840   -1.1664 H         1 <0>         0.4538
      7 N2          5.7144   -3.8917   -2.8285 N.2       1 <0>        -0.2114
      8 N3          3.2894   -1.3326   -2.3465 N.ar      1 <0>        -0.4479
      9 C5          2.3106   -1.0204   -3.1696 C.ar      1 <0>         0.1429
     10 C6          2.1462   -1.7190   -4.3731 C.ar      1 <0>         0.0872
     11 N4          2.9764   -2.7008   -4.6939 N.ar      1 <0>        -0.3381
     12 C7          1.0398   -1.3584   -5.2904 C.ar      1 <0>        -0.0262
     13 C8          0.9003   -0.0495   -5.7538 C.ar      1 <0>        -0.0763
     14 C9         -0.1534    0.2378   -6.6127 C.ar      1 <0>         0.0610
     15 C10        -1.0280   -0.7758   -6.9813 C.ar      1 <0>         0.0414
     16 N5         -0.8753   -2.0040   -6.5298 N.ar      1 <0>        -0.4348
     17 C11         0.1173   -2.3296   -5.7130 C.ar      1 <0>         0.2249
     18 C12         0.2507   -3.7264   -5.2380 C.2       1 <0>        -0.1517
     19 C13         0.1710   -4.2023   -3.8517 C.2       1 <0>        -0.1950
     20 C14         0.3498   -5.5325   -3.9057 C.2       1 <0>        -0.0268
     21 O1          0.5280   -5.8984   -5.1842 O.3       1 <0>        -0.1733
     22 C15         0.4663   -4.8341   -5.9963 C.2       1 <0>         0.0506
     23 C16         0.6141   -4.8602   -7.4959 C.3       1 <0>        -0.0782
     24 O2         -0.3267    1.4997   -7.0876 O.3       1 <0>        -0.3209
     25 C17        -1.4329    1.7161   -7.9659 C.3       1 <0>         0.0256
     26 C18        -1.4652    3.1849   -8.3931 C.3       1 <0>         0.0432
     27 H2         -1.4823    3.8205   -7.5078 H         1 <0>         0.1533
     28 C19        -2.7181    3.4447   -9.2318 C.3       1 <0>        -0.0555
     29 C20        -2.8142    4.9147   -9.5493 C.2       1 <0>        -0.2377
     30 C21        -3.5090    5.8360   -8.8633 C.2       1 <0>         0.1041
     31 N6         -3.3599    7.0639   -9.4484 N.pl3     1 <0>        -0.5846
     32 H3         -3.7677    7.8852   -9.1319 H         1 <0>         0.4265
     33 C22        -2.5448    6.9602  -10.5533 C.ar      1 <0>         0.0987
     34 C23        -2.1621    5.6105  -10.6613 C.ar      1 <0>        -0.1170
     35 C24        -1.3203    5.2061  -11.6988 C.ar      1 <0>        -0.1141
     36 C25        -0.8687    6.1255  -12.6035 C.ar      1 <0>        -0.1191
     37 C26        -1.2400    7.4587  -12.4989 C.ar      1 <0>        -0.0932
     38 C27        -2.0775    7.8778  -11.4881 C.ar      1 <0>        -0.1110
     39 N7         -0.2700    3.4891   -9.1912 N.4       1 <0>        -0.6366
     40 H4          4.6611   -5.8946   -4.8197 H         1 <0>         0.0904
     41 H5          4.8903   -4.5534   -5.9673 H         1 <0>         0.0887
     42 H6          6.2868   -5.2217   -5.0890 H         1 <0>         0.0866
     43 H7          1.6300   -0.2213   -2.9155 H         1 <0>         0.1813
     44 H8          1.5940    0.7212   -5.4519 H         1 <0>         0.1515
     45 H9         -1.8474   -0.5535   -7.6489 H         1 <0>         0.1625
     46 H10         0.0030   -3.6046   -2.9680 H         1 <0>         0.1453
     47 H11         0.3503   -6.2000   -3.0566 H         1 <0>         0.2045
     48 H12         1.6644   -4.7360   -7.7596 H         1 <0>         0.0851
     49 H13         0.2535   -5.8145   -7.8799 H         1 <0>         0.0821
     50 H14         0.0314   -4.0492   -7.9326 H         1 <0>         0.0890
     51 H15        -1.3262    1.0836   -8.8472 H         1 <0>         0.0926
     52 H16        -2.3604    1.4673   -7.4502 H         1 <0>         0.1147
     53 H17        -2.6587    2.8757  -10.1597 H         1 <0>         0.0999
     54 H18        -3.6007    3.1354   -8.6719 H         1 <0>         0.1219
     55 H19        -4.0986    5.6374   -7.9805 H         1 <0>         0.1791
     56 H20        -1.0267    4.1705  -11.7860 H         1 <0>         0.1150
     57 H21        -0.2174    5.8122  -13.4060 H         1 <0>         0.1311
     58 H22        -0.8743    8.1736  -13.2211 H         1 <0>         0.1351
     59 H23        -2.3597    8.9177  -11.4145 H         1 <0>         0.1293
     60 H24        -0.2541    2.9007  -10.0107 H         1 <0>         0.4299
     61 H25        -0.2912    4.4577   -9.4729 H         1 <0>         0.4381
     62 H26         0.5564    3.3178   -8.6381 H         1 <0>         0.4394
@<TRIPOS>BOND
     1    1    2 1
     2    1   40 1
     3    1   41 1
     4    1   42 1
     5    2    7 2
     6    2    3 1
     7    3   11 ar
     8    3    4 ar
     9    4    5 1
    10    4    8 ar
    11    5    6 1
    12    5    7 1
    13    8    9 ar
    14    9   10 ar
    15    9   43 1
    16   10   11 ar
    17   10   12 1
    18   12   17 ar
    19   12   13 ar
    20   13   14 ar
    21   13   44 1
    22   14   15 ar
    23   14   24 1
    24   15   16 ar
    25   15   45 1
    26   16   17 ar
    27   17   18 1
    28   18   22 2
    29   18   19 1
    30   19   20 2
    31   19   46 1
    32   20   21 1
    33   20   47 1
    34   21   22 1
    35   22   23 1
    36   23   48 1
    37   23   49 1
    38   23   50 1
    39   24   25 1
    40   25   26 1
    41   25   51 1
    42   25   52 1
    43   26   27 1
    44   26   28 1
    45   26   39 1
    46   28   29 1
    47   28   53 1
    48   28   54 1
    49   29   34 1
    50   29   30 2
    51   30   31 1
    52   30   55 1
    53   31   32 1
    54   31   33 1
    55   33   38 ar
    56   33   34 ar
    57   34   35 ar
    58   35   36 ar
    59   35   56 1
    60   36   37 ar
    61   36   57 1
    62   37   38 ar
    63   37   58 1
    64   38   59 1
    65   39   60 1
    66   39   61 1
    67   39   62 1
@<TRIPOS>MOLECULE
CHEMBL1202525
   65    68     0     0     0
SMALL
USER_CHARGES

@<TRIPOS>ATOM
      1 C1         -2.5614    1.5314    2.3118 C.3       1 <0>         0.0226
      2 O1         -2.6291    0.1062    2.3907 O.3       1 <0>        -0.3047
      3 C2         -2.5319   -0.5824    1.2215 C.ar      1 <0>         0.0932
      4 C3         -2.3688    0.1035    0.0257 C.ar      1 <0>        -0.1482
      5 C4         -2.2689   -0.5856   -1.1678 C.ar      1 <0>        -0.1117
      6 C5         -2.3303   -1.9696   -1.1810 C.ar      1 <0>         0.1313
      7 C6         -2.4946   -2.6722    0.0225 C.ar      1 <0>        -0.1756
      8 C7         -2.5901   -1.9663    1.2281 C.ar      1 <0>         0.1150
      9 F1         -2.7433   -2.6326    2.3933 F         1 <0>        -0.1181
     10 C8         -2.5609   -4.1435    0.0182 C.2       1 <0>         0.4573
     11 O2         -1.5394   -4.7984    0.0988 O.2       1 <0>        -0.4221
     12 C9         -3.8691   -4.8241   -0.0839 C.ar      1 <0>        -0.1421
     13 C10        -5.0325   -4.0801   -0.2910 C.ar      1 <0>        -0.0614
     14 C11        -6.2499   -4.7215   -0.3853 C.ar      1 <0>        -0.1068
     15 C12        -6.3200   -6.0992   -0.2751 C.ar      1 <0>        -0.0710
     16 C13        -5.1712   -6.8426   -0.0693 C.ar      1 <0>        -0.1074
     17 C14        -3.9464   -6.2144    0.0207 C.ar      1 <0>        -0.0591
     18 C15        -7.6538   -6.7930   -0.3791 C.3       1 <0>         0.1018
     19 O3         -7.9116   -7.1273   -1.7443 O.3       1 <0>        -0.3579
     20 C16        -9.1586   -7.7928   -1.9543 C.3       1 <0>         0.0670
     21 H1         -9.8661   -7.4556   -1.1968 H         1 <0>         0.0779
     22 C17        -8.9483   -9.2756   -1.7935 C.3       1 <0>        -0.1644
     23 C18       -10.2355   -9.9130   -1.2166 C.3       1 <0>        -0.1557
     24 C19       -11.2750  -10.0134   -2.2367 C.3       1 <0>        -0.0074
     25 N1        -11.7075   -8.7109   -2.7726 N.4       1 <0>        -0.4963
     26 C20       -10.8016   -8.3538   -3.8402 C.3       1 <0>        -0.0352
     27 C21        -9.6992   -7.4035   -3.3442 C.3       1 <0>         0.1342
     28 N2         -8.5922   -7.4185   -4.3036 N.am      1 <0>        -0.7071
     29 C22        -8.6567   -6.6645   -5.4188 C.2       1 <0>         0.5718
     30 O4         -9.6332   -5.9723   -5.6286 O.2       1 <0>        -0.5202
     31 C23        -7.5372   -6.6796   -6.3890 C.ar      1 <0>        -0.0997
     32 C24        -6.4072   -7.4733   -6.1699 C.ar      1 <0>        -0.1401
     33 C25        -5.3867   -7.4574   -7.1009 C.ar      1 <0>         0.1028
     34 N3         -5.4686   -6.7080   -8.1822 N.ar      1 <0>        -0.4589
     35 C26        -6.5155   -5.9455   -8.4271 C.ar      1 <0>         0.1046
     36 C27        -7.5839   -5.9051   -7.5521 C.ar      1 <0>        -0.1116
     37 O5         -2.2324   -2.6439   -2.3548 O.3       1 <0>        -0.4875
     38 H2         -2.6515    1.9554    3.3119 H         1 <0>         0.1094
     39 H3         -1.6064    1.8262    1.8768 H         1 <0>         0.0622
     40 H4         -3.3747    1.8998    1.6865 H         1 <0>         0.0614
     41 H5         -2.3201    1.1824    0.0282 H         1 <0>         0.1513
     42 H6         -2.1429   -0.0435   -2.0934 H         1 <0>         0.1495
     43 H7         -4.9792   -3.0048   -0.3769 H         1 <0>         0.1324
     44 H8         -7.1505   -4.1473   -0.5451 H         1 <0>         0.1301
     45 H9         -5.2330   -7.9174    0.0165 H         1 <0>         0.1319
     46 H10        -3.0499   -6.7962    0.1761 H         1 <0>         0.1402
     47 H11        -7.6378   -7.7028    0.2209 H         1 <0>         0.0689
     48 H12        -8.4377   -6.1301   -0.0131 H         1 <0>         0.0675
     49 H13        -8.7258   -9.7192   -2.7640 H         1 <0>         0.0864
     50 H14        -8.1167   -9.4536   -1.1117 H         1 <0>         0.1050
     51 H15       -10.0040  -10.9103   -0.8426 H         1 <0>         0.1254
     52 H16       -10.6005   -9.2990   -0.3933 H         1 <0>         0.0914
     53 H17       -10.8981  -10.6207   -3.0595 H         1 <0>         0.1323
     54 H18       -12.1399  -10.5165   -1.8042 H         1 <0>         0.1359
     55 H19       -12.6476   -8.7836   -3.1315 H         1 <0>         0.4408
     56 H20       -10.3393   -9.2590   -4.2340 H         1 <0>         0.1375
     57 H21       -11.3632   -7.8655   -4.6366 H         1 <0>         0.1452
     58 H22       -10.1049   -6.3931   -3.2937 H         1 <0>         0.1193
     59 H23        -7.8127   -7.9710   -4.1361 H         1 <0>         0.4156
     60 H24        -6.3331   -8.0892   -5.2858 H         1 <0>         0.1371
     61 H25        -4.5098   -8.0670   -6.9405 H         1 <0>         0.1662
     62 H26        -6.5402   -5.3471   -9.3258 H         1 <0>         0.1693
     63 H27        -8.4405   -5.2816   -7.7614 H         1 <0>         0.1505
     64 H28        -1.3229   -2.8118   -2.6373 H         1 <0>         0.4005
     65 H29       -11.6712   -8.0125   -2.0452 H         1 <0>         0.4275
@<TRIPOS>BOND
     1    1    2 1
     2    1   38 1
     3    1   39 1
     4    1   40 1
     5    2    3 1
     6    3    8 ar
     7    3    4 ar
     8    4    5 ar
     9    4   41 1
    10    5    6 ar
    11    5   42 1
    12    6    7 ar
    13    6   37 1
    14    7    8 ar
    15    7   10 1
    16    8    9 1
    17   10   11 2
    18   10   12 1
    19   12   17 ar
    20   12   13 ar
    21   13   14 ar
    22   13   43 1
    23   14   15 ar
    24   14   44 1
    25   15   16 ar
    26   15   18 1
    27   16   17 ar
    28   16   45 1
    29   17   46 1
    30   18   19 1
    31   18   47 1
    32   18   48 1
    33   19   20 1
    34   20   21 1
    35   20   27 1
    36   20   22 1
    37   22   23 1
    38   22   49 1
    39   22   50 1
    40   23   24 1
    41   23   51 1
    42   23   52 1
    43   24   25 1
    44   24   53 1
    45   24   54 1
    46   25   26 1
    47   25   55 1
    48   25   65 1
    49   26   27 1
    50   26   56 1
    51   26   57 1
    52   27   28 1
    53   27   58 1
    54   28   29 am
    55   28   59 1
    56   29   30 2
    57   29   31 1
    58   31   36 ar
    59   31   32 ar
    60   32   33 ar
    61   32   60 1
    62   33   34 ar
    63   33   61 1
    64   34   35 ar
    65   35   36 ar
    66   35   62 1
    67   36   63 1
    68   37   64 1
@<TRIPOS>MOLECULE
CHEMBL1202525
   65    68     0     0     0
SMALL
USER_CHARGES

@<TRIPOS>ATOM
      1 C1         -2.5614    1.5314    2.3118 C.3       1 <0>         0.0226
      2 O1         -2.6291    0.1062    2.3907 O.3       1 <0>        -0.3045
      3 C2         -2.5319   -0.5824    1.2215 C.ar      1 <0>         0.0933
      4 C3         -2.3688    0.1035    0.0257 C.ar      1 <0>        -0.1482
      5 C4         -2.2689   -0.5856   -1.1678 C.ar      1 <0>        -0.1117
      6 C5         -2.3303   -1.9696   -1.1810 C.ar      1 <0>         0.1311
      7 C6         -2.4946   -2.6722    0.0225 C.ar      1 <0>        -0.1753
      8 C7         -2.5901   -1.9663    1.2281 C.ar      1 <0>         0.1152
      9 F1         -2.7433   -2.6326    2.3933 F         1 <0>        -0.1180
     10 C8         -2.5609   -4.1435    0.0182 C.2       1 <0>         0.4571
     11 O2         -1.5394   -4.7984    0.0988 O.2       1 <0>        -0.4223
     12 C9         -3.8691   -4.8241   -0.0839 C.ar      1 <0>        -0.1428
     13 C10        -5.0325   -4.0801   -0.2910 C.ar      1 <0>        -0.0614
     14 C11        -6.2499   -4.7215   -0.3853 C.ar      1 <0>        -0.1079
     15 C12        -6.3200   -6.0992   -0.2751 C.ar      1 <0>        -0.0701
     16 C13        -5.1712   -6.8426   -0.0693 C.ar      1 <0>        -0.1071
     17 C14        -3.9464   -6.2144    0.0207 C.ar      1 <0>        -0.0586
     18 C15        -7.6538   -6.7930   -0.3791 C.3       1 <0>         0.1009
     19 O3         -7.9116   -7.1273   -1.7443 O.3       1 <0>        -0.3580
     20 C16        -9.1586   -7.7928   -1.9543 C.3       1 <0>         0.0683
     21 H1         -9.8725   -7.4611   -1.2004 H         1 <0>         0.0833
     22 C17        -8.9485   -9.3216   -1.8182 C.3       1 <0>        -0.1543
     23 C18       -10.2898   -9.9830   -1.6460 C.3       1 <0>        -0.1448
     24 C19       -10.9298  -10.4279   -2.9734 C.3       1 <0>        -0.0102
     25 N1        -10.7996   -9.4295   -4.0562 N.4       1 <0>        -0.4997
     26 C20       -11.0328   -8.0869   -3.5820 C.3       1 <0>        -0.0248
     27 C21        -9.6665   -7.4515   -3.2773 C.3       1 <0>         0.1314
     28 N2         -9.7940   -5.9951   -3.3715 N.am      1 <0>        -0.7125
     29 C22        -9.7485   -5.3911   -4.5755 C.2       1 <0>         0.5739
     30 O4         -9.6016   -6.0545   -5.5829 O.2       1 <0>        -0.5233
     31 C23        -9.8775   -3.9183   -4.6708 C.ar      1 <0>        -0.1003
     32 C24       -10.0413   -3.1357   -3.5238 C.ar      1 <0>        -0.1416
     33 C25       -10.1571   -1.7657   -3.6586 C.ar      1 <0>         0.1032
     34 N3        -10.1154   -1.1966   -4.8468 N.ar      1 <0>        -0.4582
     35 C26        -9.9624   -1.8971   -5.9528 C.ar      1 <0>         0.1057
     36 C27        -9.8329   -3.2718   -5.9097 C.ar      1 <0>        -0.1107
     37 O5         -2.2324   -2.6439   -2.3548 O.3       1 <0>        -0.4877
     38 H2         -2.6515    1.9554    3.3119 H         1 <0>         0.1094
     39 H3         -1.6064    1.8262    1.8768 H         1 <0>         0.0621
     40 H4         -3.3747    1.8998    1.6865 H         1 <0>         0.0614
     41 H5         -2.3201    1.1824    0.0282 H         1 <0>         0.1512
     42 H6         -2.1429   -0.0435   -2.0934 H         1 <0>         0.1494
     43 H7         -4.9792   -3.0048   -0.3769 H         1 <0>         0.1324
     44 H8         -7.1505   -4.1473   -0.5451 H         1 <0>         0.1293
     45 H9         -5.2330   -7.9174    0.0165 H         1 <0>         0.1319
     46 H10        -3.0499   -6.7962    0.1761 H         1 <0>         0.1400
     47 H11        -7.6378   -7.7028    0.2209 H         1 <0>         0.0692
     48 H12        -8.4377   -6.1301   -0.0131 H         1 <0>         0.0671
     49 H13        -8.4648   -9.7051   -2.7165 H         1 <0>         0.0820
     50 H14        -8.3249   -9.5285   -0.9485 H         1 <0>         0.1052
     51 H15       -10.1683  -10.8574   -1.0067 H         1 <0>         0.1166
     52 H16       -10.9632   -9.2831   -1.1511 H         1 <0>         0.0888
     53 H17       -10.4563  -11.3554   -3.2953 H         1 <0>         0.1354
     54 H18       -11.9888  -10.6211   -2.8025 H         1 <0>         0.1343
     55 H19        -9.8694   -9.4841   -4.4431 H         1 <0>         0.4286
     56 H20       -11.5460   -7.5083   -4.3501 H         1 <0>         0.1440
     57 H21       -11.6372   -8.1157   -2.6754 H         1 <0>         0.1412
     58 H22        -8.9484   -7.7870   -4.0256 H         1 <0>         0.1150
     59 H23        -9.9113   -5.4654   -2.5674 H         1 <0>         0.4123
     60 H24       -10.0771   -3.5954   -2.5471 H         1 <0>         0.1363
     61 H25       -10.2840   -1.1527   -2.7785 H         1 <0>         0.1665
     62 H26        -9.9341   -1.3890   -6.9055 H         1 <0>         0.1697
     63 H27        -9.7033   -3.8390   -6.8196 H         1 <0>         0.1507
     64 H28        -1.3229   -2.8118   -2.6373 H         1 <0>         0.4005
     65 H29       -11.4683   -9.6424   -4.7812 H         1 <0>         0.4374
@<TRIPOS>BOND
     1    1    2 1
     2    1   38 1
     3    1   39 1
     4    1   40 1
     5    2    3 1
     6    3    8 ar
     7    3    4 ar
     8    4    5 ar
     9    4   41 1
    10    5    6 ar
    11    5   42 1
    12    6    7 ar
    13    6   37 1
    14    7    8 ar
    15    7   10 1
    16    8    9 1
    17   10   11 2
    18   10   12 1
    19   12   17 ar
    20   12   13 ar
    21   13   14 ar
    22   13   43 1
    23   14   15 ar
    24   14   44 1
    25   15   16 ar
    26   15   18 1
    27   16   17 ar
    28   16   45 1
    29   17   46 1
    30   18   19 1
    31   18   47 1
    32   18   48 1
    33   19   20 1
    34   20   21 1
    35   20   27 1
    36   20   22 1
    37   22   23 1
    38   22   49 1
    39   22   50 1
    40   23   24 1
    41   23   51 1
    42   23   52 1
    43   24   25 1
    44   24   53 1
    45   24   54 1
    46   25   26 1
    47   25   55 1
    48   25   65 1
    49   26   27 1
    50   26   56 1
    51   26   57 1
    52   27   28 1
    53   27   58 1
    54   28   29 am
    55   28   59 1
    56   29   30 2
    57   29   31 1
    58   31   36 ar
    59   31   32 ar
    60   32   33 ar
    61   32   60 1
    62   33   34 ar
    63   33   61 1
    64   34   35 ar
    65   35   36 ar
    66   35   62 1
    67   36   63 1
    68   37   64 1
@<TRIPOS>MOLECULE
CHEMBL1099297
   62    65     0     0     0
SMALL
USER_CHARGES

@<TRIPOS>ATOM
      1 C1         -0.0187    1.5258    0.0104 C.3       1 <0>        -0.1709
      2 C2          0.0021   -0.0041    0.0020 C.3       1 <0>         0.0934
      3 N1          0.7106   -0.4894    1.1889 N.pl3     1 <0>        -0.4542
      4 C3          2.0591   -0.7390    1.2909 C.ar      1 <0>         0.1308
      5 C4          3.1434   -0.6439    0.4279 C.ar      1 <0>        -0.1682
      6 C5          4.4035   -0.9912    0.8894 C.ar      1 <0>         0.3192
      7 N2          4.5902   -1.4096    2.1317 N.ar      1 <0>        -0.5330
      8 C6          3.5912   -1.5196    2.9985 C.ar      1 <0>         0.3581
      9 C7          2.2790   -1.1866    2.6096 C.ar      1 <0>         0.0014
     10 N3          1.0876   -1.1892    3.2334 N.2       1 <0>        -0.4355
     11 C8          0.1554   -0.7750    2.4101 C.2       1 <0>         0.3454
     12 C9         -1.2785   -0.6396    2.7460 C.2       1 <0>         0.1257
     13 C10        -1.8891   -0.9348    4.0485 C.2       1 <0>         0.3627
     14 N4         -3.1689   -0.6966    3.9645 N.2       1 <0>        -0.3405
     15 O1         -3.4447   -0.2500    2.6489 O.3       1 <0>         0.0536
     16 N5         -2.2210   -0.2305    1.9357 N.2       1 <0>        -0.2425
     17 N6         -1.2189   -1.3898    5.1764 N.pl3     1 <0>        -0.8026
     18 C11         3.8475   -1.9779    4.3307 C.1       1 <0>        -0.1361
     19 C12         4.0577   -2.3536    5.4229 C.1       1 <0>        -0.1075
     20 C13         4.3213   -2.8247    6.7924 C.3       1 <0>         0.2367
     21 C14         3.0105   -2.8598    7.5807 C.3       1 <0>        -0.1793
     22 C15         4.9235   -4.2302    6.7412 C.3       1 <0>        -0.1374
     23 O2          5.2390   -1.9364    7.4333 O.3       1 <0>        -0.5433
     24 O3          5.4672   -0.9010    0.0510 O.3       1 <0>        -0.2828
     25 C16         6.7425   -1.2714    0.5787 C.3       1 <0>         0.1459
     26 H1          6.7669   -1.0648    1.6487 H         1 <0>         0.1117
     27 C17         6.9781   -2.7645    0.3422 C.3       1 <0>        -0.1630
     28 C18         5.9575   -3.5752    1.1435 C.3       1 <0>        -0.0116
     29 N7          6.1838   -5.0088    0.9164 N.4       1 <0>        -0.6373
     30 C19         7.8215   -0.4771   -0.1111 C.ar      1 <0>        -0.1121
     31 C20         7.6891   -0.1456   -1.4465 C.ar      1 <0>        -0.0923
     32 C21         8.6789    0.5830   -2.0792 C.ar      1 <0>        -0.1189
     33 C22         9.8008    0.9805   -1.3764 C.ar      1 <0>        -0.1022
     34 C23         9.9328    0.6499   -0.0407 C.ar      1 <0>        -0.1163
     35 C24         8.9410   -0.0751    0.5932 C.ar      1 <0>        -0.1022
     36 H2          1.0039    1.9031    0.0027 H         1 <0>         0.0655
     37 H3         -0.5459    1.8868   -0.8726 H         1 <0>         0.0919
     38 H4         -0.5289    1.8773    0.9072 H         1 <0>         0.0661
     39 H5         -1.0205   -0.3814    0.0098 H         1 <0>         0.1135
     40 H6          0.5123   -0.3556   -0.8948 H         1 <0>         0.1042
     41 H7          3.0066   -0.3046   -0.5883 H         1 <0>         0.1538
     42 H8         -0.2610   -1.5392    5.1441 H         1 <0>         0.4283
     43 H9         -1.7087   -1.5583    5.9965 H         1 <0>         0.4210
     44 H10         2.3105   -3.5373    7.0918 H         1 <0>         0.0741
     45 H11         3.2057   -3.2086    8.5948 H         1 <0>         0.0824
     46 H12         2.5815   -1.8584    7.6172 H         1 <0>         0.0676
     47 H13         5.8573   -4.2052    6.1795 H         1 <0>         0.0649
     48 H14         5.1186   -4.5791    7.7552 H         1 <0>         0.0819
     49 H15         4.2235   -4.9078    6.2523 H         1 <0>         0.0748
     50 H16         4.9222   -1.0252    7.5010 H         1 <0>         0.3867
     51 H17         6.8658   -2.9864   -0.7191 H         1 <0>         0.0995
     52 H18         7.9854   -3.0289    0.6640 H         1 <0>         0.1085
     53 H19         6.0698   -3.3533    2.2047 H         1 <0>         0.1464
     54 H20         4.9502   -3.3109    0.8217 H         1 <0>         0.1253
     55 H21         7.1162   -5.2534    1.2143 H         1 <0>         0.4357
     56 H22         5.5107   -5.5434    1.4448 H         1 <0>         0.4382
     57 H23         6.8125   -0.4562   -1.9957 H         1 <0>         0.1270
     58 H24         8.5758    0.8413   -3.1228 H         1 <0>         0.1286
     59 H25        10.5745    1.5492   -1.8709 H         1 <0>         0.1291
     60 H26        10.8095    0.9602    0.5084 H         1 <0>         0.1303
     61 H27         9.0424   -0.3302    1.6377 H         1 <0>         0.1255
     62 H28         6.0798   -5.2142   -0.0660 H         1 <0>         0.4342
@<TRIPOS>BOND
     1    1    2 1
     2    1   36 1
     3    1   37 1
     4    1   38 1
     5    2    3 1
     6    2   39 1
     7    2   40 1
     8    3   11 1
     9    3    4 1
    10    4    9 ar
    11    4    5 ar
    12    5    6 ar
    13    5   41 1
    14    6    7 ar
    15    6   24 1
    16    7    8 ar
    17    8    9 ar
    18    8   18 1
    19    9   10 1
    20   10   11 2
    21   11   12 1
    22   12   16 2
    23   12   13 1
    24   13   14 2
    25   13   17 1
    26   14   15 1
    27   15   16 1
    28   17   42 1
    29   17   43 1
    30   18   19 3
    31   19   20 1
    32   20   21 1
    33   20   22 1
    34   20   23 1
    35   21   44 1
    36   21   45 1
    37   21   46 1
    38   22   47 1
    39   22   48 1
    40   22   49 1
    41   23   50 1
    42   24   25 1
    43   25   26 1
    44   25   27 1
    45   25   30 1
    46   27   28 1
    47   27   51 1
    48   27   52 1
    49   28   29 1
    50   28   53 1
    51   28   54 1
    52   29   55 1
    53   29   56 1
    54   29   62 1
    55   30   35 ar
    56   30   31 ar
    57   31   32 ar
    58   31   57 1
    59   32   33 ar
    60   32   58 1
    61   33   34 ar
    62   33   59 1
    63   34   35 ar
    64   34   60 1
    65   35   61 1
@<TRIPOS>MOLECULE
CHEMBL494662
   47    50     0     0     0
SMALL
USER_CHARGES

@<TRIPOS>ATOM
      1 C1          0.0556    1.0348    0.3304 C.3       1 <0>        -0.1581
      2 C2         -0.0620   -0.4778    0.1327 C.3       1 <0>         0.1020
      3 N1          0.6351   -0.8654   -1.0961 N.pl3     1 <0>        -0.4489
      4 C3          0.0722   -1.0191   -2.3342 C.ar      1 <0>         0.1361
      5 C4         -1.2228   -0.8875   -2.8615 C.ar      1 <0>        -0.1904
      6 C5         -1.4167   -1.1352   -4.2194 C.ar      1 <0>         0.1538
      7 N2         -0.4105   -1.4863   -4.9976 N.ar      1 <0>        -0.4831
      8 C6          0.8205   -1.6224   -4.5489 C.ar      1 <0>         0.2254
      9 C7          1.1162   -1.3957   -3.2028 C.ar      1 <0>        -0.0071
     10 N3          2.2475   -1.4521   -2.4621 N.2       1 <0>        -0.4327
     11 C8          1.9734   -1.1355   -1.2205 C.2       1 <0>         0.3366
     12 C9          2.9588   -1.0818   -0.1181 C.2       1 <0>         0.1301
     13 C10         4.3955   -1.3619   -0.2336 C.2       1 <0>         0.3636
     14 N4          4.9379   -1.2136    0.9436 N.2       1 <0>        -0.3434
     15 O1          3.9160   -0.8424    1.8515 O.3       1 <0>         0.0486
     16 N5          2.7012   -0.7709    1.1262 N.2       1 <0>        -0.2467
     17 N6          5.0626   -1.7236   -1.3966 N.pl3     1 <0>        -0.8006
     18 C11        -2.3527   -0.4963   -1.9974 C.2       1 <0>         0.5738
     19 O2         -2.2206    0.4090   -1.1965 O.2       1 <0>        -0.5134
     20 N7         -3.5314   -1.1423   -2.0958 N.am      1 <0>        -0.7227
     21 C12        -4.6535   -0.7538   -1.2377 C.3       1 <0>         0.1345
     22 C13        -4.5458   -1.4800    0.1063 C.3       1 <0>        -0.1645
     23 C14        -5.7619   -1.1315    0.9671 C.3       1 <0>        -0.0031
     24 N8         -6.9890   -1.5512    0.2795 N.4       1 <0>        -0.5070
     25 C15        -7.1357   -0.8061   -0.9767 C.3       1 <0>        -0.0017
     26 C16        -5.9724   -1.1421   -1.9122 C.3       1 <0>        -0.1588
     27 H1          1.1074    1.3105    0.4070 H         1 <0>         0.0577
     28 H2         -0.3937    1.5483   -0.5196 H         1 <0>         0.0761
     29 H3         -0.4631    1.3231    1.2447 H         1 <0>         0.0804
     30 H4          0.3873   -0.9914    0.9827 H         1 <0>         0.0999
     31 H5         -1.1138   -0.7535    0.0561 H         1 <0>         0.0988
     32 H6         -2.4062   -1.0386   -4.6412 H         1 <0>         0.1703
     33 H7          1.6085   -1.9120   -5.2283 H         1 <0>         0.1826
     34 H8          4.5731   -1.8103   -2.2295 H         1 <0>         0.4303
     35 H9          6.0181   -1.8896   -1.3760 H         1 <0>         0.4214
     36 H10        -3.6369   -1.8645   -2.7347 H         1 <0>         0.4100
     37 H11        -4.6312    0.3236   -1.0740 H         1 <0>         0.1098
     38 H12        -4.5160   -2.5563   -0.0629 H         1 <0>         0.0927
     39 H13        -3.6359   -1.1660    0.6177 H         1 <0>         0.1149
     40 H14        -5.6883   -1.6467    1.9248 H         1 <0>         0.1381
     41 H15        -5.7906   -0.0550    1.1359 H         1 <0>         0.1351
     42 H16        -6.9403   -2.5390    0.0797 H         1 <0>         0.4288
     43 H17        -8.0763   -1.0812   -1.4539 H         1 <0>         0.1409
     44 H18        -7.1351    0.2634   -0.7664 H         1 <0>         0.1354
     45 H19        -6.0822   -0.5866   -2.8436 H         1 <0>         0.1222
     46 H20        -5.9722   -2.2115   -2.1233 H         1 <0>         0.0968
     47 H21        -7.7847   -1.3688    0.8724 H         1 <0>         0.4355
@<TRIPOS>BOND
     1    1    2 1
     2    1   27 1
     3    1   28 1
     4    1   29 1
     5    2    3 1
     6    2   30 1
     7    2   31 1
     8    3   11 1
     9    3    4 1
    10    4    9 ar
    11    4    5 ar
    12    5    6 ar
    13    5   18 1
    14    6    7 ar
    15    6   32 1
    16    7    8 ar
    17    8    9 ar
    18    8   33 1
    19    9   10 1
    20   10   11 2
    21   11   12 1
    22   12   16 2
    23   12   13 1
    24   13   14 2
    25   13   17 1
    26   14   15 1
    27   15   16 1
    28   17   34 1
    29   17   35 1
    30   18   19 2
    31   18   20 am
    32   20   21 1
    33   20   36 1
    34   21   26 1
    35   21   22 1
    36   21   37 1
    37   22   23 1
    38   22   38 1
    39   22   39 1
    40   23   24 1
    41   23   40 1
    42   23   41 1
    43   24   25 1
    44   24   42 1
    45   24   47 1
    46   25   26 1
    47   25   43 1
    48   25   44 1
    49   26   45 1
    50   26   46 1
@<TRIPOS>MOLECULE
CHEMBL521638
   37    41     0     0     0
SMALL
USER_CHARGES

@<TRIPOS>ATOM
      1 C1         -0.0167    1.3822    0.0096 C.ar      1 <0>        -0.0964
      2 C2          1.1649    2.0982    0.0022 C.ar      1 <0>        -0.0949
      3 C3          2.3851    1.4405   -0.0138 C.ar      1 <0>        -0.0635
      4 C4          2.4205    0.0511   -0.0219 C.ar      1 <0>        -0.1237
      5 C5          1.2175   -0.6772   -0.0133 C.ar      1 <0>        -0.1250
      6 C6          0.0021   -0.0041    0.0020 C.ar      1 <0>        -0.0623
      7 C7          1.2733   -2.1523   -0.0200 C.2       1 <0>         0.4230
      8 O1          0.2436   -2.7968   -0.0134 O.2       1 <0>        -0.3919
      9 C8          2.5791   -2.8491   -0.0353 C.2       1 <0>        -0.1144
     10 C9          3.7245   -2.1614   -0.0454 C.2       1 <0>        -0.1327
     11 C10         3.7029   -0.6782   -0.0388 C.2       1 <0>         0.4217
     12 O2          4.7485   -0.0596   -0.0481 O.2       1 <0>        -0.4000
     13 C11         5.0765   -2.8289   -0.0660 C.3       1 <0>         0.0980
     14 H1          5.6314   -2.5497   -0.9617 H         1 <0>         0.1513
     15 C12         4.9583   -4.3596    0.0489 C.3       1 <0>         0.0679
     16 H2          5.8591   -4.8543   -0.3144 H         1 <0>         0.1556
     17 C13         4.8096   -4.5175    1.5827 C.3       1 <0>        -0.2304
     18 C14         5.6342   -3.3511    2.1031 C.2       1 <0>         0.4785
     19 O3          6.0870   -3.2590    3.2195 O.2       1 <0>        -0.4350
     20 O4          5.7858   -2.4287    1.1223 O.3       1 <0>        -0.3136
     21 O5          3.8067   -4.8340   -0.6286 O.3       1 <0>        -0.3255
     22 C15         2.5718   -4.3582   -0.0368 C.3       1 <0>         0.1759
     23 H3          2.4674   -4.7222    0.9853 H         1 <0>         0.1098
     24 C16         1.4166   -4.8544   -0.8677 C.2       1 <0>        -0.1237
     25 C17         0.2114   -5.1760   -0.2722 C.2       1 <0>        -0.1070
     26 C18        -0.8076   -5.6195   -1.0483 C.2       1 <0>        -0.1760
     27 S1         -0.0718   -5.5925   -2.6747 S.3       1 <0>         0.0386
     28 C19         1.5422   -4.9866   -2.2108 C.2       1 <0>        -0.1413
     29 H4         -0.9612    1.9058    0.0260 H         1 <0>         0.1411
     30 H5          1.1377    3.1778    0.0086 H         1 <0>         0.1413
     31 H6          3.3053    2.0059   -0.0204 H         1 <0>         0.1458
     32 H7         -0.9246   -0.5587    0.0083 H         1 <0>         0.1454
     33 H8          3.7666   -4.4220    1.8845 H         1 <0>         0.1233
     34 H9          5.2249   -5.4678    1.9182 H         1 <0>         0.1336
     35 H10         0.0836   -5.0758    0.7955 H         1 <0>         0.1328
     36 H11        -1.8055   -5.9134   -0.7580 H         1 <0>         0.1862
     37 H12         2.3971   -4.7801   -2.8376 H         1 <0>         0.1873
@<TRIPOS>BOND
     1    1    6 ar
     2    1    2 ar
     3    1   29 1
     4    2    3 ar
     5    2   30 1
     6    3    4 ar
     7    3   31 1
     8    4   11 1
     9    4    5 ar
    10    5    6 ar
    11    5    7 1
    12    6   32 1
    13    7    8 2
    14    7    9 1
    15    9   22 1
    16    9   10 2
    17   10   11 1
    18   10   13 1
    19   11   12 2
    20   13   14 1
    21   13   20 1
    22   13   15 1
    23   15   16 1
    24   15   17 1
    25   15   21 1
    26   17   18 1
    27   17   33 1
    28   17   34 1
    29   18   19 2
    30   18   20 1
    31   21   22 1
    32   22   23 1
    33   22   24 1
    34   24   28 2
    35   24   25 1
    36   25   26 2
    37   25   35 1
    38   26   27 1
    39   26   36 1
    40   27   28 1
    41   28   37 1
@<TRIPOS>MOLECULE
CHEMBL534916
   82    86     0     0     0
SMALL
USER_CHARGES

@<TRIPOS>ATOM
      1 C1          4.6439   -8.2450    8.0950 C.3       1 <0>        -0.1428
      2 C2          3.2881   -8.9116    7.8535 C.3       1 <0>        -0.0801
      3 C3          2.8705   -9.6879    9.1046 C.3       1 <0>        -0.1096
      4 C4          1.5300  -10.3820    8.8526 C.3       1 <0>        -0.1394
      5 C5          0.4598   -9.3258    8.5593 C.3       1 <0>         0.1180
      6 N1          0.9205   -8.4816    7.4485 N.pl3     1 <0>        -0.6213
      7 C6          2.2378   -7.8388    7.5490 C.3       1 <0>         0.1287
      8 C7          0.1199   -8.2937    6.3162 C.ar      1 <0>         0.2226
      9 C8         -1.0747   -8.9962    6.1863 C.ar      1 <0>        -0.1677
     10 C9         -1.8709   -8.8181    5.0731 C.ar      1 <0>        -0.0898
     11 C10        -1.4856   -7.9365    4.0744 C.ar      1 <0>         0.0707
     12 C11        -0.2836   -7.2245    4.1979 C.ar      1 <0>        -0.1250
     13 C12         0.5150   -7.4061    5.3314 C.ar      1 <0>        -0.1530
     14 C13         0.1331   -6.2856    3.1410 C.2       1 <0>         0.4481
     15 O1          0.0258   -5.0873    3.3156 O.2       1 <0>        -0.4265
     16 C14         0.6820   -6.8015    1.8674 C.ar      1 <0>        -0.1209
     17 C15         1.1688   -5.9134    0.9061 C.ar      1 <0>        -0.0675
     18 C16         1.6798   -6.3940   -0.2798 C.ar      1 <0>        -0.0675
     19 C17         1.7110   -7.7686   -0.5202 C.ar      1 <0>        -0.1179
     20 C18         1.2242   -8.6566    0.4404 C.ar      1 <0>        -0.0995
     21 C19         0.7187   -8.1769    1.6290 C.ar      1 <0>        -0.0602
     22 C20         2.2601   -8.2847   -1.7942 C.2       1 <0>         0.5682
     23 O2          2.6837   -7.5116   -2.6308 O.2       1 <0>        -0.5166
     24 N2          2.2903   -9.6120   -2.0265 N.am      1 <0>        -0.7282
     25 C21         2.8337  -10.1227   -3.2875 C.3       1 <0>         0.1253
     26 H1          3.6623   -9.4886   -3.6029 H         1 <0>         0.1129
     27 C22         1.7260  -10.0881   -4.3699 C.3       1 <0>        -0.1410
     28 C23         2.3660  -10.2297   -5.7250 C.3       1 <0>        -0.1435
     29 C24         2.4634  -11.6878   -6.2085 C.3       1 <0>        -0.0107
     30 N3          2.8902  -12.6329   -5.1545 N.4       1 <0>        -0.4990
     31 C25         3.9542  -12.0916   -4.3442 C.3       1 <0>        -0.0239
     32 C26         3.3215  -11.4811   -3.0831 C.3       1 <0>         0.1228
     33 H2          2.4878  -12.1092   -2.7692 H         1 <0>         0.1119
     34 N4          4.3238  -11.4658   -2.0147 N.am      1 <0>        -0.7207
     35 C27         4.5581  -12.5807   -1.2946 C.2       1 <0>         0.5729
     36 O3          3.9381  -13.5986   -1.5316 O.2       1 <0>        -0.5209
     37 C28         5.5717  -12.5653   -0.2142 C.ar      1 <0>        -0.1037
     38 C29         6.2920  -11.4033    0.0786 C.ar      1 <0>        -0.1410
     39 C30         7.2275  -11.4334    1.0948 C.ar      1 <0>         0.1047
     40 N5          7.4444  -12.5367    1.7826 N.ar      1 <0>        -0.4563
     41 C31         6.7876  -13.6533    1.5391 C.ar      1 <0>         0.1055
     42 C32         5.8303  -13.7107    0.5447 C.ar      1 <0>        -0.1101
     43 O4         -2.2696   -7.7635    2.9801 O.3       1 <0>        -0.4948
     44 C33         3.3954   -9.8724    6.6677 C.3       1 <0>        -0.1376
     45 H3          4.5672   -7.5615    8.9407 H         1 <0>         0.0586
     46 H4          5.3908   -9.0087    8.3117 H         1 <0>         0.0610
     47 H5          4.9395   -7.6899    7.2048 H         1 <0>         0.0565
     48 H6          3.6284  -10.4358    9.3377 H         1 <0>         0.0669
     49 H7          2.7706   -8.9987    9.9431 H         1 <0>         0.0654
     50 H8          1.6226  -11.0530    7.9986 H         1 <0>         0.0704
     51 H9          1.2446  -10.9536    9.7357 H         1 <0>         0.0755
     52 H10        -0.4726   -9.8175    8.2822 H         1 <0>         0.0840
     53 H11         0.3016   -8.7103    9.4448 H         1 <0>         0.0663
     54 H12         2.2246   -7.1019    8.3521 H         1 <0>         0.0661
     55 H13         2.4785   -7.3493    6.6052 H         1 <0>         0.0807
     56 H14        -1.3800   -9.6845    6.9605 H         1 <0>         0.1335
     57 H15        -2.7962   -9.3670    4.9794 H         1 <0>         0.1356
     58 H16         1.4400   -6.8584    5.4355 H         1 <0>         0.1308
     59 H17         1.1443   -4.8497    1.0919 H         1 <0>         0.1455
     60 H18         2.0559   -5.7071   -1.0235 H         1 <0>         0.1453
     61 H19         1.2481   -9.7202    0.2539 H         1 <0>         0.1264
     62 H20         0.3465   -8.8643    2.3742 H         1 <0>         0.1402
     63 H21         1.9522  -10.2290   -1.3588 H         1 <0>         0.4062
     64 H22         1.0301  -10.9111   -4.2068 H         1 <0>         0.0763
     65 H23         1.1918   -9.1395   -4.3156 H         1 <0>         0.1073
     66 H24         1.7820   -9.6605   -6.4481 H         1 <0>         0.1173
     67 H25         3.3704   -9.8083   -5.6824 H         1 <0>         0.0916
     68 H26         1.4869  -11.9979   -6.5805 H         1 <0>         0.1353
     69 H27         3.1779  -11.7359   -7.0303 H         1 <0>         0.1349
     70 H28         2.1007  -12.8426   -4.5622 H         1 <0>         0.4269
     71 H29         4.6447  -12.8867   -4.0630 H         1 <0>         0.1442
     72 H30         4.4860  -11.3201   -4.9012 H         1 <0>         0.1443
     73 H31         4.8187  -10.6533   -1.8256 H         1 <0>         0.4161
     74 H32         6.1200  -10.4960   -0.4813 H         1 <0>         0.1370
     75 H33         7.7889  -10.5409    1.3285 H         1 <0>         0.1671
     76 H34         6.9979  -14.5341    2.1276 H         1 <0>         0.1698
     77 H35         5.2927  -14.6277    0.3537 H         1 <0>         0.1509
     78 H36        -2.9263   -7.0600    3.0740 H         1 <0>         0.3890
     79 H37         4.1419  -10.6362    6.8853 H         1 <0>         0.0545
     80 H38         2.4293  -10.3470    6.4960 H         1 <0>         0.0595
     81 H39         3.6914   -9.3184    5.7769 H         1 <0>         0.0499
     82 H40         3.2093  -13.4862   -5.5882 H         1 <0>         0.4376
@<TRIPOS>BOND
     1    1    2 1
     2    1   45 1
     3    1   46 1
     4    1   47 1
     5    2    7 1
     6    2    3 1
     7    2   44 1
     8    3    4 1
     9    3   48 1
    10    3   49 1
    11    4    5 1
    12    4   50 1
    13    4   51 1
    14    5    6 1
    15    5   52 1
    16    5   53 1
    17    6    7 1
    18    6    8 1
    19    7   54 1
    20    7   55 1
    21    8   13 ar
    22    8    9 ar
    23    9   10 ar
    24    9   56 1
    25   10   11 ar
    26   10   57 1
    27   11   12 ar
    28   11   43 1
    29   12   13 ar
    30   12   14 1
    31   13   58 1
    32   14   15 2
    33   14   16 1
    34   16   21 ar
    35   16   17 ar
    36   17   18 ar
    37   17   59 1
    38   18   19 ar
    39   18   60 1
    40   19   20 ar
    41   19   22 1
    42   20   21 ar
    43   20   61 1
    44   21   62 1
    45   22   23 2
    46   22   24 am
    47   24   25 1
    48   24   63 1
    49   25   26 1
    50   25   32 1
    51   25   27 1
    52   27   28 1
    53   27   64 1
    54   27   65 1
    55   28   29 1
    56   28   66 1
    57   28   67 1
    58   29   30 1
    59   29   68 1
    60   29   69 1
    61   30   31 1
    62   30   70 1
    63   30   82 1
    64   31   32 1
    65   31   71 1
    66   31   72 1
    67   32   33 1
    68   32   34 1
    69   34   35 am
    70   34   73 1
    71   35   36 2
    72   35   37 1
    73   37   42 ar
    74   37   38 ar
    75   38   39 ar
    76   38   74 1
    77   39   40 ar
    78   39   75 1
    79   40   41 ar
    80   41   42 ar
    81   41   76 1
    82   42   77 1
    83   43   78 1
    84   44   79 1
    85   44   80 1
    86   44   81 1
@<TRIPOS>MOLECULE
CHEMBL378827
   72    77     0     0     0
SMALL
USER_CHARGES

@<TRIPOS>ATOM
      1 C1         -0.0187    1.5258    0.0104 C.3       1 <0>        -0.1479
      2 C2          0.0021   -0.0041    0.0020 C.3       1 <0>        -0.0334
      3 C3          0.7421   -0.5109    1.2415 C.3       1 <0>        -0.1482
      4 C4         -1.4333   -0.5336    0.0129 C.3       1 <0>        -0.0903
      5 C5         -2.1494   -0.0402    1.2717 C.3       1 <0>        -0.1515
      6 C6         -2.6101   -1.0936    2.2812 C.3       1 <0>        -0.1802
      7 C7         -3.6377   -0.3665    1.4115 C.3       1 <0>        -0.1817
      8 C8          0.7182   -0.4975   -1.2568 C.3       1 <0>        -0.0761
      9 C9          2.1085    0.0900   -1.3399 C.ar      1 <0>        -0.1241
     10 C10         3.2103   -0.0015   -0.5234 C.ar      1 <0>        -0.0452
     11 C11         4.3853    0.6677   -0.8662 C.ar      1 <0>        -0.0842
     12 C12         4.4299    1.4243   -2.0363 C.ar      1 <0>        -0.0642
     13 C13         3.3219    1.5109   -2.8489 C.ar      1 <0>        -0.1378
     14 C14         2.1456    0.8426   -2.5084 C.ar      1 <0>         0.1663
     15 N1          0.9141    0.7806   -3.1603 N.am      1 <0>        -0.6613
     16 C15         0.0252    0.0207   -2.4989 C.2       1 <0>         0.5342
     17 O1         -1.1179   -0.2073   -2.8341 O.2       1 <0>        -0.4816
     18 C16         5.5796    0.5754    0.0091 C.ar      1 <0>        -0.0330
     19 C17         6.7577    1.2477   -0.3253 C.ar      1 <0>        -0.0990
     20 C18         7.8474    1.1289    0.5274 C.ar      1 <0>         0.0702
     21 C19         7.7292    0.3529    1.6726 C.ar      1 <0>         0.0191
     22 N2          6.6018   -0.2686    1.9572 N.ar      1 <0>        -0.4371
     23 C20         5.5417   -0.1787    1.1803 C.ar      1 <0>         0.0840
     24 O2          9.0152    1.7640    0.2442 O.3       1 <0>        -0.3228
     25 C21        10.0889    1.5916    1.1712 C.3       1 <0>         0.0264
     26 C22        11.3108    2.3753    0.6879 C.3       1 <0>         0.0434
     27 H1         11.5603    2.0690   -0.3280 H         1 <0>         0.1528
     28 C23        12.4968    2.0917    1.6119 C.3       1 <0>        -0.0555
     29 C24        13.7302    2.7648    1.0672 C.2       1 <0>        -0.2377
     30 C25        14.6620    2.2067    0.2783 C.2       1 <0>         0.1040
     31 N3         15.6349    3.1231   -0.0149 N.pl3     1 <0>        -0.5845
     32 H2         16.4125    2.9523   -0.5689 H         1 <0>         0.4265
     33 C26        15.3455    4.3239    0.5936 C.ar      1 <0>         0.0987
     34 C27        14.1364    4.1540    1.2929 C.ar      1 <0>        -0.1171
     35 C28        13.5898    5.2207    2.0085 C.ar      1 <0>        -0.1141
     36 C29        14.2311    6.4274    2.0230 C.ar      1 <0>        -0.1190
     37 C30        15.4218    6.6013    1.3314 C.ar      1 <0>        -0.0932
     38 C31        15.9837    5.5593    0.6263 C.ar      1 <0>        -0.1109
     39 N4         11.0090    3.8129    0.7057 N.4       1 <0>        -0.6363
     40 H3          1.0039    1.9031    0.0027 H         1 <0>         0.0577
     41 H4         -0.5459    1.8868   -0.8726 H         1 <0>         0.0515
     42 H5         -0.5289    1.8773    0.9072 H         1 <0>         0.0680
     43 H6          0.2319   -0.1594    2.1383 H         1 <0>         0.0688
     44 H7          0.7568   -1.6008    1.2356 H         1 <0>         0.0605
     45 H8          1.7647   -0.1336    1.2338 H         1 <0>         0.0596
     46 H9         -1.9605   -0.1726   -0.8702 H         1 <0>         0.0851
     47 H10        -1.4185   -1.6235    0.0069 H         1 <0>         0.0674
     48 H11        -1.8049    0.9166    1.6640 H         1 <0>         0.1056
     49 H12        -2.4030   -2.1382    2.0485 H         1 <0>         0.0932
     50 H13        -2.5686   -0.8300    3.3380 H         1 <0>         0.0917
     51 H14        -4.2722    0.3755    1.8963 H         1 <0>         0.0930
     52 H15        -4.1066   -0.9326    0.6067 H         1 <0>         0.0942
     53 H16         0.7602   -1.5866   -1.2691 H         1 <0>         0.1279
     54 H17         3.1664   -0.5896    0.3814 H         1 <0>         0.1397
     55 H18         5.3370    1.9447   -2.3063 H         1 <0>         0.1326
     56 H19         3.3634    2.0990   -3.7537 H         1 <0>         0.1335
     57 H20         0.7213    1.2346   -3.9955 H         1 <0>         0.4163
     58 H21         6.8195    1.8439   -1.2236 H         1 <0>         0.1478
     59 H22         8.5731    0.2566    2.3396 H         1 <0>         0.1575
     60 H23         4.6351   -0.6992    1.4514 H         1 <0>         0.1660
     61 H24         9.7854    1.9599    2.1512 H         1 <0>         0.0920
     62 H25        10.3408    0.5335    1.2427 H         1 <0>         0.1140
     63 H26        12.2819    2.4783    2.6081 H         1 <0>         0.0999
     64 H27        12.6646    1.0161    1.6680 H         1 <0>         0.1218
     65 H28        14.6463    1.1854   -0.0726 H         1 <0>         0.1791
     66 H29        12.6632    5.0929    2.5484 H         1 <0>         0.1149
     67 H30        13.8078    7.2524    2.5767 H         1 <0>         0.1312
     68 H31        15.9165    7.5611    1.3518 H         1 <0>         0.1352
     69 H32        16.9100    5.7049    0.0904 H         1 <0>         0.1294
     70 H33        10.7780    4.0964    1.6461 H         1 <0>         0.4300
     71 H34        11.8148    4.3297    0.3870 H         1 <0>         0.4381
     72 H35        10.2269    3.9999    0.0964 H         1 <0>         0.4391
@<TRIPOS>BOND
     1    1    2 1
     2    1   40 1
     3    1   41 1
     4    1   42 1
     5    2    3 1
     6    2    4 1
     7    2    8 1
     8    3   43 1
     9    3   44 1
    10    3   45 1
    11    4    5 1
    12    4   46 1
    13    4   47 1
    14    5    7 1
    15    5    6 1
    16    5   48 1
    17    6    7 1
    18    6   49 1
    19    6   50 1
    20    7   51 1
    21    7   52 1
    22    8   16 1
    23    8    9 1
    24    8   53 1
    25    9   14 ar
    26    9   10 ar
    27   10   11 ar
    28   10   54 1
    29   11   12 ar
    30   11   18 1
    31   12   13 ar
    32   12   55 1
    33   13   14 ar
    34   13   56 1
    35   14   15 1
    36   15   16 am
    37   15   57 1
    38   16   17 2
    39   18   23 ar
    40   18   19 ar
    41   19   20 ar
    42   19   58 1
    43   20   21 ar
    44   20   24 1
    45   21   22 ar
    46   21   59 1
    47   22   23 ar
    48   23   60 1
    49   24   25 1
    50   25   26 1
    51   25   61 1
    52   25   62 1
    53   26   27 1
    54   26   28 1
    55   26   39 1
    56   28   29 1
    57   28   63 1
    58   28   64 1
    59   29   34 1
    60   29   30 2
    61   30   31 1
    62   30   65 1
    63   31   32 1
    64   31   33 1
    65   33   38 ar
    66   33   34 ar
    67   34   35 ar
    68   35   36 ar
    69   35   66 1
    70   36   37 ar
    71   36   67 1
    72   37   38 ar
    73   37   68 1
    74   38   69 1
    75   39   70 1
    76   39   71 1
    77   39   72 1
@<TRIPOS>MOLECULE
CHEMBL378827
   72    77     0     0     0
SMALL
USER_CHARGES

@<TRIPOS>ATOM
      1 C1         -0.0187    1.5258    0.0104 C.3       1 <0>        -0.1521
      2 C2          0.0021   -0.0041    0.0020 C.3       1 <0>        -0.0335
      3 C3          0.7421   -0.5109    1.2415 C.3       1 <0>        -0.1441
      4 C4         -1.4333   -0.5336    0.0129 C.3       1 <0>        -0.0909
      5 C5         -2.1494   -0.0402    1.2717 C.3       1 <0>        -0.1518
      6 C6         -2.6101   -1.0936    2.2812 C.3       1 <0>        -0.1813
      7 C7         -3.6377   -0.3665    1.4115 C.3       1 <0>        -0.1805
      8 C8          0.7182   -0.4975   -1.2568 C.3       1 <0>        -0.0761
      9 C9          2.1673   -0.0674   -1.2448 C.ar      1 <0>        -0.1240
     10 C10         2.7744    1.1656   -1.2297 C.ar      1 <0>        -0.0454
     11 C11         4.1666    1.2533   -1.2218 C.ar      1 <0>        -0.0841
     12 C12         4.9296    0.0866   -1.2293 C.ar      1 <0>        -0.0643
     13 C13         4.3138   -1.1447   -1.2445 C.ar      1 <0>        -0.1378
     14 C14         2.9217   -1.2352   -1.2524 C.ar      1 <0>         0.1663
     15 N1          2.0834   -2.3499   -1.2680 N.am      1 <0>        -0.6612
     16 C15         0.7837   -2.0098   -1.2715 C.2       1 <0>         0.5345
     17 O1         -0.1601   -2.7716   -1.2841 O.2       1 <0>        -0.4823
     18 C16         4.8310    2.5797   -1.2059 C.ar      1 <0>        -0.0330
     19 C17         6.2247    2.6749   -1.2038 C.ar      1 <0>        -0.0990
     20 C18         6.7976    3.9399   -1.1887 C.ar      1 <0>         0.0702
     21 C19         5.9724    5.0564   -1.1763 C.ar      1 <0>         0.0191
     22 N2          4.6601    4.9297   -1.1784 N.ar      1 <0>        -0.4371
     23 C20         4.0744    3.7499   -1.1988 C.ar      1 <0>         0.0839
     24 O2          8.1492    4.0832   -1.1855 O.3       1 <0>        -0.3228
     25 C21         8.6600    5.4177   -1.1697 C.3       1 <0>         0.0264
     26 C22        10.1895    5.3783   -1.1684 C.3       1 <0>         0.0434
     27 H1         10.5366    4.7701   -0.3331 H         1 <0>         0.1528
     28 C23        10.7362    6.8001   -1.0258 C.3       1 <0>        -0.0555
     29 C24        12.2373    6.7510   -0.9012 C.2       1 <0>        -0.2376
     30 C25        12.9438    6.7408    0.2401 C.2       1 <0>         0.1040
     31 N3         14.2823    6.6924   -0.0401 N.pl3     1 <0>        -0.5846
     32 H2         14.9902    6.6764    0.6229 H         1 <0>         0.4265
     33 C26        14.4746    6.6697   -1.4033 C.ar      1 <0>         0.0988
     34 C27        13.2018    6.6990   -2.0025 C.ar      1 <0>        -0.1171
     35 C28        13.0862    6.6792   -3.3935 C.ar      1 <0>        -0.1141
     36 C29        14.2115    6.6278   -4.1671 C.ar      1 <0>        -0.1190
     37 C30        15.4691    6.5945   -3.5809 C.ar      1 <0>        -0.0932
     38 C31        15.6065    6.6226   -2.2101 C.ar      1 <0>        -0.1110
     39 N4         10.6653    4.7949   -2.4299 N.4       1 <0>        -0.6363
     40 H3          1.0039    1.9031    0.0027 H         1 <0>         0.0613
     41 H4         -0.5459    1.8868   -0.8726 H         1 <0>         0.0619
     42 H5         -0.5289    1.8773    0.9072 H         1 <0>         0.0686
     43 H6          0.2319   -0.1594    2.1383 H         1 <0>         0.0683
     44 H7          0.7568   -1.6008    1.2356 H         1 <0>         0.0502
     45 H8          1.7647   -0.1336    1.2338 H         1 <0>         0.0560
     46 H9         -1.9605   -0.1726   -0.8702 H         1 <0>         0.0694
     47 H10        -1.4185   -1.6235    0.0069 H         1 <0>         0.0835
     48 H11        -1.8049    0.9166    1.6640 H         1 <0>         0.1065
     49 H12        -2.4030   -2.1382    2.0485 H         1 <0>         0.0928
     50 H13        -2.5686   -0.8300    3.3380 H         1 <0>         0.0916
     51 H14        -4.2722    0.3755    1.8963 H         1 <0>         0.0935
     52 H15        -4.1066   -0.9326    0.6067 H         1 <0>         0.0939
     53 H16         0.2154   -0.1282   -2.1506 H         1 <0>         0.1280
     54 H17         2.1752    2.0642   -1.2242 H         1 <0>         0.1396
     55 H18         6.0078    0.1488   -1.2236 H         1 <0>         0.1327
     56 H19         4.9111   -2.0445   -1.2506 H         1 <0>         0.1335
     57 H20         2.4024   -3.2659   -1.2757 H         1 <0>         0.4163
     58 H21         6.8407    1.7878   -1.2132 H         1 <0>         0.1479
     59 H22         6.4119    6.0429   -1.1646 H         1 <0>         0.1576
     60 H23         2.9961    3.6888   -1.2048 H         1 <0>         0.1659
     61 H24         8.3110    5.9509   -2.0540 H         1 <0>         0.0921
     62 H25         8.3091    5.9305   -0.2742 H         1 <0>         0.1139
     63 H26        10.4635    7.3841   -1.9049 H         1 <0>         0.0999
     64 H27        10.3127    7.2646   -0.1354 H         1 <0>         0.1218
     65 H28        12.5188    6.7672    1.2326 H         1 <0>         0.1791
     66 H29        12.1108    6.7042   -3.8566 H         1 <0>         0.1149
     67 H30        14.1216    6.6125   -5.2433 H         1 <0>         0.1312
     68 H31        16.3491    6.5532   -4.2056 H         1 <0>         0.1353
     69 H32        16.5895    6.5951   -1.7635 H         1 <0>         0.1294
     70 H33        10.3440    5.3579   -3.2031 H         1 <0>         0.4300
     71 H34        11.6740    4.7689   -2.4291 H         1 <0>         0.4381
     72 H35        10.3048    3.8572   -2.5239 H         1 <0>         0.4392
@<TRIPOS>BOND
     1    1    2 1
     2    1   40 1
     3    1   41 1
     4    1   42 1
     5    2    3 1
     6    2    4 1
     7    2    8 1
     8    3   43 1
     9    3   44 1
    10    3   45 1
    11    4    5 1
    12    4   46 1
    13    4   47 1
    14    5    7 1
    15    5    6 1
    16    5   48 1
    17    6    7 1
    18    6   49 1
    19    6   50 1
    20    7   51 1
    21    7   52 1
    22    8   16 1
    23    8    9 1
    24    8   53 1
    25    9   14 ar
    26    9   10 ar
    27   10   11 ar
    28   10   54 1
    29   11   12 ar
    30   11   18 1
    31   12   13 ar
    32   12   55 1
    33   13   14 ar
    34   13   56 1
    35   14   15 1
    36   15   16 am
    37   15   57 1
    38   16   17 2
    39   18   23 ar
    40   18   19 ar
    41   19   20 ar
    42   19   58 1
    43   20   21 ar
    44   20   24 1
    45   21   22 ar
    46   21   59 1
    47   22   23 ar
    48   23   60 1
    49   24   25 1
    50   25   26 1
    51   25   61 1
    52   25   62 1
    53   26   27 1
    54   26   28 1
    55   26   39 1
    56   28   29 1
    57   28   63 1
    58   28   64 1
    59   29   34 1
    60   29   30 2
    61   30   31 1
    62   30   65 1
    63   31   32 1
    64   31   33 1
    65   33   38 ar
    66   33   34 ar
    67   34   35 ar
    68   35   36 ar
    69   35   66 1
    70   36   37 ar
    71   36   67 1
    72   37   38 ar
    73   37   68 1
    74   38   69 1
    75   39   70 1
    76   39   71 1
    77   39   72 1
@<TRIPOS>MOLECULE
CHEMBL594755
   60    64     0     0     0
SMALL
USER_CHARGES

@<TRIPOS>ATOM
      1 C1          5.2103   -4.9967   -5.0142 C.3       1 <0>        -0.0792
      2 C2          4.9874   -4.0028   -3.9036 C.2       1 <0>         0.1307
      3 C3          3.9602   -3.0286   -3.8605 C.ar      1 <0>        -0.0039
      4 C4          4.1215   -2.3184   -2.6524 C.ar      1 <0>         0.2652
      5 N1          5.2065   -2.8657   -2.0201 N.pl3     1 <0>        -0.4772
      6 H1          5.5660   -2.5871   -1.1634 H         1 <0>         0.4528
      7 N2          5.7032   -3.9002   -2.8217 N.2       1 <0>        -0.2124
      8 N3          3.2854   -1.3328   -2.3461 N.ar      1 <0>        -0.4495
      9 C5          2.3075   -1.0196   -3.1696 C.ar      1 <0>         0.1348
     10 C6          2.1405   -1.7210   -4.3716 C.ar      1 <0>         0.1029
     11 N4          2.9675   -2.7070   -4.6897 N.ar      1 <0>        -0.3429
     12 C7          1.0360   -1.3594   -5.2894 C.ar      1 <0>        -0.0968
     13 C8          0.9001   -0.0469   -5.7540 C.ar      1 <0>        -0.0920
     14 C9         -0.1479    0.2444   -6.6104 C.ar      1 <0>        -0.0076
     15 C10        -1.0316   -0.7726   -6.9825 C.ar      1 <0>         0.4208
     16 N5         -0.8801   -2.0050   -6.5281 N.ar      1 <0>        -0.5012
     17 C11         0.1140   -2.3293   -5.7104 C.ar      1 <0>         0.2821
     18 C12         0.2468   -3.7252   -5.2331 C.2       1 <0>        -0.1533
     19 C13         0.1676   -4.1986   -3.8458 C.2       1 <0>        -0.1933
     20 C14         0.3447   -5.5291   -3.8976 C.2       1 <0>        -0.0278
     21 O1          0.5215   -5.8975   -5.1756 O.3       1 <0>        -0.1734
     22 C15         0.4613   -4.8345   -5.9896 C.2       1 <0>         0.0534
     23 C16         0.6098   -4.8633   -7.4890 C.3       1 <0>        -0.0791
     24 N6         -2.0854   -0.4840   -7.8425 N.pl3     1 <0>        -0.8402
     25 O2         -0.3162    1.5081   -7.0848 O.3       1 <0>        -0.3257
     26 C17         0.6279    2.4923   -6.6583 C.3       1 <0>         0.0309
     27 C18         0.2790    3.8414   -7.2901 C.3       1 <0>         0.0434
     28 H2          0.2244    3.7321   -8.3732 H         1 <0>         0.1552
     29 C19         1.3586    4.8655   -6.9346 C.3       1 <0>        -0.0973
     30 C20         1.0808    6.1592   -7.6558 C.ar      1 <0>        -0.1302
     31 C21         1.6088    6.3758   -8.9148 C.ar      1 <0>        -0.1030
     32 C22         1.3539    7.5625   -9.5764 C.ar      1 <0>        -0.1052
     33 C23         0.5707    8.5324   -8.9791 C.ar      1 <0>        -0.1013
     34 C24         0.0420    8.3155   -7.7205 C.ar      1 <0>        -0.1074
     35 C25         0.2933    7.1270   -7.0607 C.ar      1 <0>        -0.1402
     36 N7         -1.0191    4.3006   -6.7782 N.4       1 <0>        -0.6362
     37 H3          4.6441   -5.9050   -4.8080 H         1 <0>         0.0900
     38 H4          4.8765   -4.5670   -5.9587 H         1 <0>         0.0888
     39 H5          6.2715   -5.2369   -5.0792 H         1 <0>         0.0860
     40 H6          1.6295   -0.2177   -2.9174 H         1 <0>         0.1766
     41 H7          1.5963    0.7213   -5.4512 H         1 <0>         0.1435
     42 H8          0.0012   -3.5991   -2.9630 H         1 <0>         0.1450
     43 H9          0.3447   -6.1952   -3.0474 H         1 <0>         0.2041
     44 H10         1.6603   -4.7408   -7.7525 H         1 <0>         0.0857
     45 H11         0.2481   -5.8177   -7.8716 H         1 <0>         0.0818
     46 H12         0.0283   -4.0522   -7.9273 H         1 <0>         0.0900
     47 H13        -2.2032    0.4178   -8.1798 H         1 <0>         0.4091
     48 H14        -2.7028   -1.1846   -8.1052 H         1 <0>         0.4124
     49 H15         0.5954    2.5804   -5.5724 H         1 <0>         0.0898
     50 H16         1.6292    2.1938   -6.9688 H         1 <0>         0.1108
     51 H17         1.3530    5.0408   -5.8588 H         1 <0>         0.1033
     52 H18         2.3344    4.4841   -7.2354 H         1 <0>         0.1247
     53 H19         2.2207    5.6181   -9.3815 H         1 <0>         0.1305
     54 H20         1.7670    7.7321  -10.5598 H         1 <0>         0.1334
     55 H21         0.3722    9.4599   -9.4957 H         1 <0>         0.1330
     56 H22        -0.5697    9.0734   -7.2537 H         1 <0>         0.1325
     57 H23        -0.1229    6.9560   -6.0789 H         1 <0>         0.1227
     58 H24        -0.9686    4.4018   -5.7756 H         1 <0>         0.4323
     59 H25        -1.2492    5.1903   -7.1949 H         1 <0>         0.4363
     60 H26        -1.7311    3.6252   -7.0127 H         1 <0>         0.4415
@<TRIPOS>BOND
     1    1    2 1
     2    1   37 1
     3    1   38 1
     4    1   39 1
     5    2    7 2
     6    2    3 1
     7    3   11 ar
     8    3    4 ar
     9    4    5 1
    10    4    8 ar
    11    5    6 1
    12    5    7 1
    13    8    9 ar
    14    9   10 ar
    15    9   40 1
    16   10   11 ar
    17   10   12 1
    18   12   17 ar
    19   12   13 ar
    20   13   14 ar
    21   13   41 1
    22   14   15 ar
    23   14   25 1
    24   15   16 ar
    25   15   24 1
    26   16   17 ar
    27   17   18 1
    28   18   22 2
    29   18   19 1
    30   19   20 2
    31   19   42 1
    32   20   21 1
    33   20   43 1
    34   21   22 1
    35   22   23 1
    36   23   44 1
    37   23   45 1
    38   23   46 1
    39   24   47 1
    40   24   48 1
    41   25   26 1
    42   26   27 1
    43   26   49 1
    44   26   50 1
    45   27   28 1
    46   27   29 1
    47   27   36 1
    48   29   30 1
    49   29   51 1
    50   29   52 1
    51   30   35 ar
    52   30   31 ar
    53   31   32 ar
    54   31   53 1
    55   32   33 ar
    56   32   54 1
    57   33   34 ar
    58   33   55 1
    59   34   35 ar
    60   34   56 1
    61   35   57 1
    62   36   58 1
    63   36   59 1
    64   36   60 1
@<TRIPOS>MOLECULE
CHEMBL254099
   73    79     0     0     0
SMALL
USER_CHARGES

@<TRIPOS>ATOM
      1 C1         -0.0225    1.8097    0.0120 C.3       1 <0>        -0.1489
      2 S1          0.0021   -0.0041    0.0020 S.3       1 <0>         0.0302
      3 C2          0.8767   -0.4266    1.4721 C.ar      1 <0>         0.3271
      4 N1          1.3174    0.5551    2.2576 N.ar      1 <0>        -0.5278
      5 C3          1.9766    0.3014    3.3689 C.ar      1 <0>         0.2399
      6 C4          2.2114   -1.0411    3.7185 C.ar      1 <0>        -0.2287
      7 C5          2.9053   -1.3920    4.8864 C.ar      1 <0>         0.0086
      8 C6          3.0909   -2.7406    5.1528 C.ar      1 <0>        -0.1090
      9 C7          2.5820   -3.7021    4.2518 C.ar      1 <0>         0.2474
     10 N2          1.9327   -3.3451    3.1593 N.ar      1 <0>        -0.4557
     11 C8          1.7278   -2.0628    2.8584 C.ar      1 <0>         0.3664
     12 N3          1.0636   -1.7028    1.7525 N.ar      1 <0>        -0.4843
     13 C9          2.7816   -5.1415    4.5386 C.ar      1 <0>        -0.0209
     14 C10         3.9528   -5.5760    5.1591 C.ar      1 <0>        -0.0763
     15 C11         4.1327   -6.9181    5.4241 C.ar      1 <0>        -0.1016
     16 C12         3.1545   -7.8322    5.0753 C.ar      1 <0>        -0.1449
     17 C13         1.9909   -7.4074    4.4592 C.ar      1 <0>        -0.0971
     18 C14         1.7967   -6.0672    4.1946 C.ar      1 <0>        -0.0683
     19 C15         3.3576   -9.2966    5.3671 C.3       1 <0>         0.0425
     20 N4          2.8280   -9.6080    6.7015 N.4       1 <0>        -0.3836
     21 C16         3.6083   -8.8894    7.7160 C.3       1 <0>        -0.0115
     22 C17         3.0105   -9.1461    9.1010 C.3       1 <0>        -0.1379
     23 C18         3.0469  -10.6483    9.3963 C.3       1 <0>         0.0022
     24 C19         2.2929  -11.3941    8.2915 C.3       1 <0>        -0.1402
     25 C20         2.9173  -11.0542    6.9364 C.3       1 <0>        -0.0033
     26 C21         2.3887  -10.9167   10.7251 C.2       1 <0>         0.2198
     27 N5          2.9771  -11.4788   11.7761 N.2       1 <0>        -0.5190
     28 H1          0.1257  -10.9686   12.8688 H         1 <0>         0.4543
     29 C22         2.1207  -11.5650   12.7733 C.2       1 <0>         0.3519
     30 N6          0.9449  -11.0437   12.3549 N.pl3     1 <0>        -0.4477
     31 N7          1.1492  -10.6282   11.0290 N.2       1 <0>        -0.3001
     32 C23         2.3958  -12.1321   14.1126 C.ar      1 <0>         0.1604
     33 C24         3.6643  -12.6321   14.4047 C.ar      1 <0>        -0.1103
     34 C25         3.9063  -13.1587   15.6617 C.ar      1 <0>        -0.0738
     35 C26         2.8715  -13.1685   16.5863 C.ar      1 <0>        -0.1434
     36 C27         1.6374  -12.6559   16.2291 C.ar      1 <0>         0.1095
     37 N8          1.4346  -12.1557   15.0278 N.ar      1 <0>        -0.4750
     38 C28         3.8172   -3.1690    6.3720 C.ar      1 <0>        -0.0500
     39 C29         3.2649   -4.1343    7.2126 C.ar      1 <0>        -0.0993
     40 C30         3.9459   -4.5295    8.3460 C.ar      1 <0>        -0.1211
     41 C31         5.1740   -3.9694    8.6488 C.ar      1 <0>        -0.1085
     42 C32         5.7270   -3.0112    7.8184 C.ar      1 <0>        -0.1114
     43 C33         5.0579   -2.6123    6.6792 C.ar      1 <0>        -0.1029
     44 H2          1.0001    2.1870    0.0043 H         1 <0>         0.0934
     45 H3         -0.5497    2.1708   -0.8711 H         1 <0>         0.1178
     46 H4         -0.5327    2.1613    0.9088 H         1 <0>         0.0933
     47 H5          2.3293    1.1056    3.9977 H         1 <0>         0.1879
     48 H6          3.2838   -0.6351    5.5574 H         1 <0>         0.1576
     49 H7          4.7174   -4.8634    5.4312 H         1 <0>         0.1444
     50 H8          5.0391   -7.2558    5.9044 H         1 <0>         0.1365
     51 H9          1.2311   -8.1257    4.1890 H         1 <0>         0.1372
     52 H10         0.8860   -5.7362    3.7177 H         1 <0>         0.1435
     53 H11         2.8331   -9.8921    4.6199 H         1 <0>         0.1398
     54 H12         4.4220   -9.5292    5.3353 H         1 <0>         0.1383
     55 H13         4.6402   -9.2399    7.6955 H         1 <0>         0.1333
     56 H14         3.5841   -7.8208    7.5026 H         1 <0>         0.1364
     57 H15         3.5924   -8.6131    9.8530 H         1 <0>         0.1152
     58 H16         1.9786   -8.7957    9.1226 H         1 <0>         0.0961
     59 H17         4.0818  -10.9891    9.4253 H         1 <0>         0.1175
     60 H18         2.3618  -12.4680    8.4649 H         1 <0>         0.1165
     61 H19         1.2461  -11.0904    8.2963 H         1 <0>         0.0966
     62 H20         2.3830  -11.5837    6.1476 H         1 <0>         0.1362
     63 H21         3.9639  -11.3585    6.9326 H         1 <0>         0.1339
     64 H22         4.4468  -12.6090   13.6607 H         1 <0>         0.1515
     65 H23         4.8785  -13.5536   15.9170 H         1 <0>         0.1489
     66 H24         3.0282  -13.5728   17.5754 H         1 <0>         0.1481
     67 H25         0.8301  -12.6625   16.9465 H         1 <0>         0.1699
     68 H26         2.3059   -4.5717    6.9776 H         1 <0>         0.1208
     69 H27         3.5191   -5.2772    8.9980 H         1 <0>         0.1229
     70 H28         5.7030   -4.2813    9.5372 H         1 <0>         0.1265
     71 H29         6.6860   -2.5771    8.0600 H         1 <0>         0.1304
     72 H30         5.4926   -1.8673    6.0293 H         1 <0>         0.1283
     73 H31         1.8628   -9.3186    6.7551 H         1 <0>         0.4237
@<TRIPOS>BOND
     1    1    2 1
     2    1   44 1
     3    1   45 1
     4    1   46 1
     5    2    3 1
     6    3   12 ar
     7    3    4 ar
     8    4    5 ar
     9    5    6 ar
    10    5   47 1
    11    6   11 ar
    12    6    7 ar
    13    7    8 ar
    14    7   48 1
    15    8    9 ar
    16    8   38 1
    17    9   10 ar
    18    9   13 1
    19   10   11 ar
    20   11   12 ar
    21   13   18 ar
    22   13   14 ar
    23   14   15 ar
    24   14   49 1
    25   15   16 ar
    26   15   50 1
    27   16   17 ar
    28   16   19 1
    29   17   18 ar
    30   17   51 1
    31   18   52 1
    32   19   20 1
    33   19   53 1
    34   19   54 1
    35   20   25 1
    36   20   21 1
    37   20   73 1
    38   21   22 1
    39   21   55 1
    40   21   56 1
    41   22   23 1
    42   22   57 1
    43   22   58 1
    44   23   24 1
    45   23   59 1
    46   23   26 1
    47   24   25 1
    48   24   60 1
    49   24   61 1
    50   25   62 1
    51   25   63 1
    52   26   27 1
    53   26   31 2
    54   27   29 2
    55   28   30 1
    56   29   32 1
    57   29   30 1
    58   30   31 1
    59   32   37 ar
    60   32   33 ar
    61   33   34 ar
    62   33   64 1
    63   34   35 ar
    64   34   65 1
    65   35   36 ar
    66   35   66 1
    67   36   37 ar
    68   36   67 1
    69   38   43 ar
    70   38   39 ar
    71   39   40 ar
    72   39   68 1
    73   40   41 ar
    74   40   69 1
    75   41   42 ar
    76   41   70 1
    77   42   43 ar
    78   42   71 1
    79   43   72 1
@<TRIPOS>MOLECULE
CHEMBL254099
   73    79     0     0     0
SMALL
USER_CHARGES

@<TRIPOS>ATOM
      1 C1         -0.0225    1.8097    0.0120 C.3       1 <0>        -0.1490
      2 S1          0.0021   -0.0041    0.0020 S.3       1 <0>         0.0307
      3 C2          0.8484   -0.4107   -1.4889 C.ar      1 <0>         0.3272
      4 N1          1.2837    0.5796   -2.2667 N.ar      1 <0>        -0.5275
      5 C3          1.9229    0.3379   -3.3923 C.ar      1 <0>         0.2401
      6 C4          2.1419   -1.0009   -3.7658 C.ar      1 <0>        -0.2286
      7 C5          2.8151   -1.3392   -4.9495 C.ar      1 <0>         0.0090
      8 C6          2.9869   -2.6849   -5.2387 C.ar      1 <0>        -0.1092
      9 C7          2.4852   -3.6562   -4.3441 C.ar      1 <0>         0.2461
     10 N2          1.8548   -3.3109   -3.2368 N.ar      1 <0>        -0.4556
     11 C8          1.6645   -2.0319   -2.9134 C.ar      1 <0>         0.3664
     12 N3          1.0298   -1.6838   -1.7865 N.ar      1 <0>        -0.4845
     13 C9          2.6699   -5.0924   -4.6553 C.ar      1 <0>        -0.0190
     14 C10         2.6327   -5.5326   -5.9783 C.ar      1 <0>        -0.0757
     15 C11         2.8060   -6.8718   -6.2619 C.ar      1 <0>        -0.1014
     16 C12         3.0157   -7.7773   -5.2372 C.ar      1 <0>        -0.1470
     17 C13         3.0532   -7.3469   -3.9229 C.ar      1 <0>        -0.0974
     18 C14         2.8875   -6.0093   -3.6271 C.ar      1 <0>        -0.0688
     19 C15         3.2037   -9.2386   -5.5539 C.3       1 <0>         0.0428
     20 N4          4.6315   -9.5150   -5.7612 N.4       1 <0>        -0.3846
     21 C16         5.1019   -8.7885   -6.9467 C.3       1 <0>        -0.0125
     22 C17         6.6062   -9.0081   -7.1205 C.3       1 <0>        -0.1384
     23 C18         6.8814  -10.5045   -7.2944 C.3       1 <0>        -0.0160
     24 C19         6.3204  -11.2604   -6.0865 C.3       1 <0>        -0.1491
     25 C20         4.8266  -10.9574   -5.9509 C.3       1 <0>        -0.0022
     26 C21         8.3676  -10.7360   -7.3879 C.2       1 <0>         0.2711
     27 N5          9.0592  -10.8309   -8.4921 N.2       1 <0>        -0.4884
     28 H1          8.9802  -10.8452   -5.4064 H         1 <0>         0.4405
     29 C22        10.3511  -11.0367   -8.2019 C.2       1 <0>         0.2881
     30 N6         10.4888  -11.0741   -6.8945 N.2       1 <0>        -0.2779
     31 N7          9.2106  -10.8746   -6.3482 N.pl3     1 <0>        -0.4753
     32 C23        11.4449  -11.1964   -9.1915 C.ar      1 <0>         0.1848
     33 C24        12.7491  -11.4118   -8.7511 C.ar      1 <0>        -0.1315
     34 C25        13.7588  -11.5594   -9.6860 C.ar      1 <0>        -0.0745
     35 C26        13.4307  -11.4867  -11.0326 C.ar      1 <0>        -0.1509
     36 C27        12.1153  -11.2706  -11.3991 C.ar      1 <0>         0.1033
     37 N8         11.1722  -11.1385  -10.4884 N.ar      1 <0>        -0.4470
     38 C28         3.6902   -3.1001   -6.4757 C.ar      1 <0>        -0.0504
     39 C29         4.7183   -4.0397   -6.4143 C.ar      1 <0>        -0.1003
     40 C30         5.3692   -4.4227   -7.5693 C.ar      1 <0>        -0.1215
     41 C31         5.0036   -3.8759   -8.7863 C.ar      1 <0>        -0.1078
     42 C32         3.9842   -2.9431   -8.8533 C.ar      1 <0>        -0.1109
     43 C33         3.3223   -2.5567   -7.7057 C.ar      1 <0>        -0.1026
     44 H2          1.0001    2.1870    0.0043 H         1 <0>         0.0934
     45 H3         -0.5497    2.1708   -0.8711 H         1 <0>         0.0935
     46 H4         -0.5327    2.1613    0.9088 H         1 <0>         0.1179
     47 H5          2.2708    1.1489   -4.0150 H         1 <0>         0.1881
     48 H6          3.1879   -0.5750   -5.6154 H         1 <0>         0.1578
     49 H7          2.4684   -4.8268   -6.7790 H         1 <0>         0.1449
     50 H8          2.7774   -7.2139   -7.2859 H         1 <0>         0.1370
     51 H9          3.2169   -8.0585   -3.1272 H         1 <0>         0.1368
     52 H10         2.9213   -5.6738   -2.6011 H         1 <0>         0.1437
     53 H11         2.8338   -9.8407   -4.7239 H         1 <0>         0.1406
     54 H12         2.6501   -9.4884   -6.4590 H         1 <0>         0.1395
     55 H13         4.5773   -9.1553   -7.8289 H         1 <0>         0.1369
     56 H14         4.9024   -7.7241   -6.8228 H         1 <0>         0.1393
     57 H15         6.9532   -8.4693   -8.0023 H         1 <0>         0.1245
     58 H16         7.1319   -8.6413   -6.2389 H         1 <0>         0.0899
     59 H17         6.3980  -10.8607   -8.2040 H         1 <0>         0.1306
     60 H18         6.4630  -12.3316   -6.2291 H         1 <0>         0.1235
     61 H19         6.8401  -10.9404   -5.1834 H         1 <0>         0.0882
     62 H20         4.4239  -11.4942   -5.0920 H         1 <0>         0.1392
     63 H21         4.3079  -11.2780   -6.8544 H         1 <0>         0.1378
     64 H22        12.9691  -11.4624   -7.6949 H         1 <0>         0.1436
     65 H23        14.7793  -11.7270   -9.3747 H         1 <0>         0.1455
     66 H24        14.1956  -11.5974  -11.7869 H         1 <0>         0.1449
     67 H25        11.8565  -11.2135  -12.4461 H         1 <0>         0.1668
     68 H26         5.0050   -4.4667   -5.4647 H         1 <0>         0.1201
     69 H27         6.1658   -5.1505   -7.5230 H         1 <0>         0.1225
     70 H28         5.5163   -4.1781   -9.6875 H         1 <0>         0.1273
     71 H29         3.7033   -2.5193   -9.8062 H         1 <0>         0.1308
     72 H30         2.5236   -1.8318   -7.7599 H         1 <0>         0.1285
     73 H31         5.1529   -9.2096   -4.9532 H         1 <0>         0.4223
@<TRIPOS>BOND
     1    1    2 1
     2    1   44 1
     3    1   45 1
     4    1   46 1
     5    2    3 1
     6    3   12 ar
     7    3    4 ar
     8    4    5 ar
     9    5    6 ar
    10    5   47 1
    11    6   11 ar
    12    6    7 ar
    13    7    8 ar
    14    7   48 1
    15    8    9 ar
    16    8   38 1
    17    9   10 ar
    18    9   13 1
    19   10   11 ar
    20   11   12 ar
    21   13   18 ar
    22   13   14 ar
    23   14   15 ar
    24   14   49 1
    25   15   16 ar
    26   15   50 1
    27   16   17 ar
    28   16   19 1
    29   17   18 ar
    30   17   51 1
    31   18   52 1
    32   19   20 1
    33   19   53 1
    34   19   54 1
    35   20   25 1
    36   20   21 1
    37   20   73 1
    38   21   22 1
    39   21   55 1
    40   21   56 1
    41   22   23 1
    42   22   57 1
    43   22   58 1
    44   23   24 1
    45   23   59 1
    46   23   26 1
    47   24   25 1
    48   24   60 1
    49   24   61 1
    50   25   62 1
    51   25   63 1
    52   26   27 2
    53   26   31 1
    54   27   29 1
    55   28   31 1
    56   29   32 1
    57   29   30 2
    58   30   31 1
    59   32   37 ar
    60   32   33 ar
    61   33   34 ar
    62   33   64 1
    63   34   35 ar
    64   34   65 1
    65   35   36 ar
    66   35   66 1
    67   36   37 ar
    68   36   67 1
    69   38   43 ar
    70   38   39 ar
    71   39   40 ar
    72   39   68 1
    73   40   41 ar
    74   40   69 1
    75   41   42 ar
    76   41   70 1
    77   42   43 ar
    78   42   71 1
    79   43   72 1
@<TRIPOS>MOLECULE
CHEMBL247250
   48    51     0     0     0
SMALL
USER_CHARGES

@<TRIPOS>ATOM
      1 C1         -0.7918   -1.1889    1.5773 C.3       1 <0>         0.1057
      2 N1         -0.0683   -0.6011    0.4471 N.am      1 <0>        -0.7475
      3 C2          0.4494   -1.3974   -0.5091 C.2       1 <0>         0.6904
      4 O1          0.3160   -2.6035   -0.4338 O.2       1 <0>        -0.5227
      5 N2          1.1149   -0.8566   -1.5489 N.am      1 <0>        -0.6702
      6 C3          1.7402   -1.6825   -2.4816 C.ar      1 <0>         0.3887
      7 C4          2.5179   -1.1201   -3.4877 C.ar      1 <0>        -0.2108
      8 C5          3.1329   -1.9513   -4.4069 C.ar      1 <0>        -0.0221
      9 C6          2.9483   -3.3222   -4.2877 C.ar      1 <0>        -0.2030
     10 C7          2.1626   -3.8119   -3.2636 C.ar      1 <0>         0.1604
     11 N3          1.5927   -2.9951   -2.3982 N.ar      1 <0>        -0.4735
     12 C8          3.5984   -4.2659   -5.2665 C.3       1 <0>         0.1785
     13 N4          4.9214   -4.6507   -4.7686 N.pl3     1 <0>        -0.6817
     14 C9          5.7146   -5.5200   -5.5055 C.2       1 <0>         0.4455
     15 C10         6.9805   -5.9193   -5.0685 C.2       1 <0>        -0.3999
     16 S1          7.4632   -6.9950   -6.4097 S.3       1 <0>         0.1508
     17 C11         6.0755   -6.8388   -7.3483 C.2       1 <0>         0.1080
     18 N5          5.3181   -6.0221   -6.6547 N.2       1 <0>        -0.5615
     19 C12         7.6839   -5.5686   -3.8916 C.2       1 <0>         0.6268
     20 O2          7.1798   -4.8081   -3.0845 O.2       1 <0>        -0.5278
     21 N6          8.9116   -6.0760   -3.6638 N.am      1 <0>        -0.6692
     22 C13         9.5629   -5.8157   -2.4518 C.ar      1 <0>         0.1772
     23 C14        10.9453   -5.6882   -2.4198 C.ar      1 <0>        -0.1270
     24 C15        11.5893   -5.4310   -1.2247 C.ar      1 <0>        -0.0576
     25 C16        10.8582   -5.3000   -0.0550 C.ar      1 <0>         0.0067
     26 C17         9.4715   -5.4279   -0.0838 C.ar      1 <0>         0.0509
     27 C18         8.8263   -5.6795   -1.2831 C.ar      1 <0>        -0.0883
     28 O3          8.9913   -5.2589    1.1829 O.3       1 <0>        -0.2840
     29 C19        10.1266   -5.4330    2.0511 C.3       1 <0>         0.5706
     30 O4         11.2464   -5.0508    1.2307 O.3       1 <0>        -0.2852
     31 F1         10.0255   -4.5946    3.1665 F         1 <0>        -0.1155
     32 F2         10.2415   -6.7696    2.4480 F         1 <0>        -0.1527
     33 H1         -1.6507   -1.7487    1.2073 H         1 <0>         0.0609
     34 H2         -0.1288   -1.8598    2.1237 H         1 <0>         0.0609
     35 H3         -1.1340   -0.3956    2.2418 H         1 <0>         0.0785
     36 H4          0.0381    0.3611    0.3870 H         1 <0>         0.3978
     37 H5          1.1588    0.1073   -1.6482 H         1 <0>         0.4144
     38 H6          2.6399   -0.0489   -3.5510 H         1 <0>         0.1389
     39 H7          3.7426   -1.5430   -5.1994 H         1 <0>         0.1401
     40 H8          2.0158   -4.8776   -3.1671 H         1 <0>         0.1594
     41 H9          2.9795   -5.1561   -5.3788 H         1 <0>         0.0799
     42 H10         3.7032   -3.7720   -6.2325 H         1 <0>         0.0783
     43 H11         5.2432   -4.2981   -3.9242 H         1 <0>         0.4274
     44 H12         5.8575   -7.3048   -8.2979 H         1 <0>         0.2301
     45 H13         9.3439   -6.6214   -4.3394 H         1 <0>         0.4147
     46 H14        11.5176   -5.7899   -3.3300 H         1 <0>         0.1511
     47 H15        12.6645   -5.3322   -1.2021 H         1 <0>         0.1509
     48 H16         7.7507   -5.7739   -1.3084 H         1 <0>         0.1566
@<TRIPOS>BOND
     1    1    2 1
     2    1   33 1
     3    1   34 1
     4    1   35 1
     5    2    3 am
     6    2   36 1
     7    3    4 2
     8    3    5 am
     9    5    6 1
    10    5   37 1
    11    6   11 ar
    12    6    7 ar
    13    7    8 ar
    14    7   38 1
    15    8    9 ar
    16    8   39 1
    17    9   10 ar
    18    9   12 1
    19   10   11 ar
    20   10   40 1
    21   12   13 1
    22   12   41 1
    23   12   42 1
    24   13   14 1
    25   13   43 1
    26   14   18 1
    27   14   15 2
    28   15   16 1
    29   15   19 1
    30   16   17 1
    31   17   18 2
    32   17   44 1
    33   19   20 2
    34   19   21 am
    35   21   22 1
    36   21   45 1
    37   22   27 ar
    38   22   23 ar
    39   23   24 ar
    40   23   46 1
    41   24   25 ar
    42   24   47 1
    43   25   30 1
    44   25   26 ar
    45   26   27 ar
    46   26   28 1
    47   27   48 1
    48   28   29 1
    49   29   30 1
    50   29   31 1
    51   29   32 1
@<TRIPOS>MOLECULE
CHEMBL1080569
   49    52     0     0     0
SMALL
USER_CHARGES

@<TRIPOS>ATOM
      1 C1         -0.0167    1.3781    0.0096 C.ar      1 <0>        -0.1413
      2 C2          1.1709    2.0855    0.0021 C.ar      1 <0>        -0.0581
      3 C3          2.3773    1.4107   -0.0130 C.ar      1 <0>        -0.1626
      4 C4          2.3960    0.0285   -0.0201 C.ar      1 <0>        -0.0558
      5 C5          1.2085   -0.6789   -0.0117 C.ar      1 <0>        -0.1021
      6 C6          0.0021   -0.0041    0.0020 C.ar      1 <0>        -0.0989
      7 C7         -1.2926   -0.7753    0.0107 C.3       1 <0>        -0.0998
      8 C8         -1.7450   -1.0285   -1.4288 C.3       1 <0>         0.0252
      9 H1         -0.9463   -1.5264   -1.9784 H         1 <0>         0.1563
     10 C9         -2.9907   -1.9168   -1.4231 C.3       1 <0>         0.1098
     11 N1         -3.4936   -2.0615   -2.7914 N.pl3     1 <0>        -0.6957
     12 C10        -4.6215   -2.8266   -3.0374 C.2       1 <0>         0.2386
     13 N2         -5.3781   -3.4917   -2.1827 N.2       1 <0>        -0.3428
     14 N3         -6.3876   -4.1525   -2.5583 N.2       1 <0>        -0.2181
     15 C11        -6.6934   -4.1767   -3.8492 C.2       1 <0>         0.0742
     16 S1         -5.3893   -3.1447   -4.5040 S.3       1 <0>         0.1053
     17 C12        -7.8017   -4.8599   -4.5475 C.ar      1 <0>        -0.0028
     18 C13        -7.9226   -4.7447   -5.9442 C.ar      1 <0>        -0.1073
     19 C14        -8.9315   -5.3623   -6.6109 C.ar      1 <0>        -0.0700
     20 C15        -9.8722   -6.1296   -5.9027 C.ar      1 <0>        -0.1019
     21 C16       -10.9307   -6.7856   -6.5502 C.ar      1 <0>         0.1482
     22 N4        -11.7883   -7.4932   -5.8521 N.ar      1 <0>        -0.4778
     23 C17       -11.7070   -7.6254   -4.5351 C.ar      1 <0>         0.0852
     24 C18       -10.7182   -7.0295   -3.8131 C.ar      1 <0>        -0.1480
     25 C19        -9.7597   -6.2532   -4.4924 C.ar      1 <0>        -0.0265
     26 C20        -8.7106   -5.6139   -3.8217 C.ar      1 <0>        -0.0478
     27 N5         -2.0599    0.2523   -2.0756 N.4       1 <0>        -0.6405
     28 C21         3.6720    2.1819   -0.0222 C.3       1 <0>         0.5036
     29 F1          4.0857    2.4144    1.2938 F         1 <0>        -0.1687
     30 F2          4.6506    1.4423   -0.6949 F         1 <0>        -0.1714
     31 F3          3.4816    3.4050   -0.6742 F         1 <0>        -0.1728
     32 H2         -0.9591    1.9053    0.0259 H         1 <0>         0.1372
     33 H3          1.1563    3.1654    0.0076 H         1 <0>         0.1472
     34 H4          3.3385   -0.4987   -0.0326 H         1 <0>         0.1480
     35 H5          1.2231   -1.7588   -0.0179 H         1 <0>         0.1452
     36 H6         -1.1443   -1.7285    0.5180 H         1 <0>         0.1336
     37 H7         -2.0551   -0.1993    0.5352 H         1 <0>         0.1112
     38 H8         -2.7351   -2.8985   -1.0242 H         1 <0>         0.1207
     39 H9         -3.7596   -1.4603   -0.7997 H         1 <0>         0.1036
     40 H10        -3.0366   -1.6214   -3.5252 H         1 <0>         0.4126
     41 H11        -7.2028   -4.1565   -6.4940 H         1 <0>         0.1294
     42 H12        -9.0112   -5.2637   -7.6835 H         1 <0>         0.1457
     43 H13       -11.0398   -6.7080   -7.6219 H         1 <0>         0.1693
     44 H14       -12.4459   -8.2220   -4.0209 H         1 <0>         0.1600
     45 H15       -10.6703   -7.1497   -2.7409 H         1 <0>         0.1448
     46 H16        -8.6128   -5.7037   -2.7499 H         1 <0>         0.1471
     47 H17        -2.7994    0.7132   -1.5668 H         1 <0>         0.4382
     48 H18        -1.2384    0.8381   -2.0794 H         1 <0>         0.4388
     49 H19        -2.3583    0.0853   -3.0249 H         1 <0>         0.4319
@<TRIPOS>BOND
     1    1    6 ar
     2    1    2 ar
     3    1   32 1
     4    2    3 ar
     5    2   33 1
     6    3    4 ar
     7    3   28 1
     8    4    5 ar
     9    4   34 1
    10    5    6 ar
    11    5   35 1
    12    6    7 1
    13    7    8 1
    14    7   36 1
    15    7   37 1
    16    8    9 1
    17    8   10 1
    18    8   27 1
    19   10   11 1
    20   10   38 1
    21   10   39 1
    22   11   12 1
    23   11   40 1
    24   12   16 1
    25   12   13 2
    26   13   14 1
    27   14   15 2
    28   15   16 1
    29   15   17 1
    30   17   26 ar
    31   17   18 ar
    32   18   19 ar
    33   18   41 1
    34   19   20 ar
    35   19   42 1
    36   20   25 ar
    37   20   21 ar
    38   21   22 ar
    39   21   43 1
    40   22   23 ar
    41   23   24 ar
    42   23   44 1
    43   24   25 ar
    44   24   45 1
    45   25   26 ar
    46   26   46 1
    47   27   47 1
    48   27   48 1
    49   27   49 1
    50   28   29 1
    51   28   30 1
    52   28   31 1
@<TRIPOS>MOLECULE
CHEMBL425155
   59    64     0     0     0
SMALL
USER_CHARGES

@<TRIPOS>ATOM
      1 C1         -0.0167    1.3791    0.0096 C.ar      1 <0>        -0.1190
      2 C2          1.1686    2.0923    0.0021 C.ar      1 <0>        -0.1134
      3 C3          2.3774    1.4267   -0.0135 C.ar      1 <0>        -0.1033
      4 C4          2.4025    0.0330   -0.0212 C.ar      1 <0>        -0.0354
      5 C5          1.2049   -0.6804   -0.0131 C.ar      1 <0>        -0.1022
      6 C6          0.0021   -0.0041    0.0020 C.ar      1 <0>        -0.1241
      7 C7          3.6980   -0.6879   -0.0385 C.ar      1 <0>        -0.0814
      8 C8          4.6841   -0.3489   -0.9627 C.ar      1 <0>        -0.0530
      9 C9          5.8876   -1.0590   -0.9374 C.ar      1 <0>         0.0303
     10 C10         6.0599   -2.0752    0.0049 C.ar      1 <0>         0.1182
     11 N1          5.1084   -2.3706    0.8635 N.ar      1 <0>        -0.4617
     12 C11         3.9526   -1.7194    0.8804 C.ar      1 <0>         0.1165
     13 C12         2.9179   -2.0881    1.8739 C.ar      1 <0>         0.0231
     14 C13         2.0882   -1.1075    2.4175 C.ar      1 <0>        -0.0930
     15 C14         1.1261   -1.4572    3.3427 C.ar      1 <0>        -0.0932
     16 C15         0.9836   -2.7773    3.7314 C.ar      1 <0>        -0.1752
     17 C16         1.8039   -3.7543    3.1962 C.ar      1 <0>        -0.0949
     18 C17         2.7655   -3.4181    2.2655 C.ar      1 <0>        -0.0883
     19 C18        -0.0692   -3.1524    4.7423 C.3       1 <0>         0.0490
     20 N2         -1.3218   -3.4774    4.0472 N.4       1 <0>        -0.5090
     21 C19        -2.3480   -3.8431    5.0326 C.3       1 <0>         0.0444
     22 C20        -3.6331   -4.1765    4.3195 C.ar      1 <0>        -0.1583
     23 C21        -4.5568   -3.1797    4.0618 C.ar      1 <0>        -0.0884
     24 C22        -5.7353   -3.4795    3.4090 C.ar      1 <0>        -0.0856
     25 C23        -5.9936   -4.7889    3.0091 C.ar      1 <0>         0.0240
     26 C24        -5.0595   -5.7890    3.2709 C.ar      1 <0>        -0.0994
     27 C25        -3.8820   -5.4772    3.9201 C.ar      1 <0>        -0.0881
     28 C26        -7.2594   -5.1174    2.3072 C.2       1 <0>         0.0307
     29 C27        -7.5691   -6.3860    1.8960 C.2       1 <0>        -0.2728
     30 S1         -9.0744   -6.1646    1.1854 S.3       1 <0>         0.4402
     31 N3         -9.2508   -4.5736    1.4176 N.2       1 <0>        -0.2382
     32 N4         -8.1817   -4.2082    2.0336 N.2       1 <0>        -0.2381
     33 C28         6.9664   -0.7381   -1.8979 C.2       1 <0>         0.0621
     34 N5          8.1586   -1.3306   -1.9867 N.2       1 <0>        -0.3573
     35 N6          8.8029   -0.7623   -2.9479 N.2       1 <0>        -0.1781
     36 N7          8.0683    0.1592   -3.4652 N.2       1 <0>        -0.1792
     37 N8          6.9362    0.1967   -2.8494 N.2       1 <0>        -0.3589
     38 H1         -0.9603    1.9042    0.0260 H         1 <0>         0.1214
     39 H2          1.1479    3.1721    0.0082 H         1 <0>         0.1267
     40 H3          3.3022    1.9845   -0.0200 H         1 <0>         0.1294
     41 H4          1.2184   -1.7603   -0.0194 H         1 <0>         0.1182
     42 H5         -0.9264   -0.5557    0.0083 H         1 <0>         0.1182
     43 H6          4.5225    0.4418   -1.6803 H         1 <0>         0.1476
     44 H7          6.9880   -2.6270    0.0287 H         1 <0>         0.1719
     45 H8          2.1987   -0.0766    2.1151 H         1 <0>         0.1408
     46 H9          0.4832   -0.6988    3.7645 H         1 <0>         0.1295
     47 H10         1.6884   -4.7831    3.5041 H         1 <0>         0.1301
     48 H11         3.4019   -4.1824    1.8445 H         1 <0>         0.1408
     49 H12         0.2661   -4.0195    5.3114 H         1 <0>         0.1364
     50 H13        -0.2365   -2.3155    5.4203 H         1 <0>         0.1362
     51 H14        -1.6322   -2.6748    3.5204 H         1 <0>         0.4272
     52 H15        -2.0128   -4.7102    5.6017 H         1 <0>         0.1388
     53 H16        -2.5153   -3.0061    5.7106 H         1 <0>         0.1389
     54 H17        -4.3556   -2.1650    4.3722 H         1 <0>         0.1379
     55 H18        -6.4562   -2.7006    3.2088 H         1 <0>         0.1460
     56 H19        -5.2548   -6.8057    2.9633 H         1 <0>         0.1380
     57 H20        -3.1556   -6.2509    4.1202 H         1 <0>         0.1382
     58 H21        -6.9939   -7.2940    2.0010 H         1 <0>         0.2119
     59 H22        -1.1669   -4.2522    3.4196 H         1 <0>         0.4268
@<TRIPOS>BOND
     1    1    6 ar
     2    1    2 ar
     3    1   38 1
     4    2    3 ar
     5    2   39 1
     6    3    4 ar
     7    3   40 1
     8    4    5 ar
     9    4    7 1
    10    5    6 ar
    11    5   41 1
    12    6   42 1
    13    7   12 ar
    14    7    8 ar
    15    8    9 ar
    16    8   43 1
    17    9   10 ar
    18    9   33 1
    19   10   11 ar
    20   10   44 1
    21   11   12 ar
    22   12   13 1
    23   13   18 ar
    24   13   14 ar
    25   14   15 ar
    26   14   45 1
    27   15   16 ar
    28   15   46 1
    29   16   17 ar
    30   16   19 1
    31   17   18 ar
    32   17   47 1
    33   18   48 1
    34   19   20 1
    35   19   49 1
    36   19   50 1
    37   20   21 1
    38   20   51 1
    39   20   59 1
    40   21   22 1
    41   21   52 1
    42   21   53 1
    43   22   27 ar
    44   22   23 ar
    45   23   24 ar
    46   23   54 1
    47   24   25 ar
    48   24   55 1
    49   25   26 ar
    50   25   28 1
    51   26   27 ar
    52   26   56 1
    53   27   57 1
    54   28   32 1
    55   28   29 2
    56   29   30 1
    57   29   58 1
    58   30   31 1
    59   31   32 2
    60   33   34 2
    61   33   37 1
    62   34   35 1
    63   35   36 2
    64   36   37 1
@<TRIPOS>MOLECULE
CHEMBL188434
   48    51     0     0     0
SMALL
USER_CHARGES

@<TRIPOS>ATOM
      1 C1         -0.4429   -0.9521   -1.3996 C.3       1 <0>        -0.1714
      2 C2         -0.0580    0.2086   -0.4802 C.3       1 <0>         0.0972
      3 N1          0.3081   -0.3137    0.8387 N.pl3     1 <0>        -0.4625
      4 C3          1.5756   -0.6232    1.2698 C.ar      1 <0>         0.1026
      5 C4          2.8467   -0.5740    0.7079 C.ar      1 <0>        -0.1420
      6 C5          3.9243   -0.9795    1.4651 C.ar      1 <0>         0.1365
      7 N2          3.7687   -1.4105    2.7061 N.ar      1 <0>        -0.4790
      8 C6          2.5897   -1.4778    3.2867 C.ar      1 <0>         0.2027
      9 C7          1.4408   -1.0872    2.5946 C.ar      1 <0>        -0.0030
     10 N3          0.1240   -1.0388    2.9005 N.2       1 <0>        -0.4328
     11 C8         -0.5489   -0.5791    1.8743 C.2       1 <0>         0.3321
     12 C9         -2.0146   -0.3798    1.8382 C.2       1 <0>         0.1344
     13 C10        -2.9476   -0.6525    2.9386 C.2       1 <0>         0.3630
     14 N4         -4.1529   -0.3556    2.5371 N.2       1 <0>        -0.3435
     15 O1         -4.0662    0.1090    1.2018 O.3       1 <0>         0.0467
     16 N5         -2.7018    0.0752    0.8223 N.2       1 <0>        -0.2552
     17 N6         -2.6057   -1.1427    4.1920 N.pl3     1 <0>        -0.8001
     18 C11         3.0422   -0.0862   -0.7045 C.3       1 <0>         0.1004
     19 N7          3.0393    1.3828   -0.7200 N.3       1 <0>        -0.6766
     20 C12         3.0994    1.8948   -2.0956 C.3       1 <0>         0.0704
     21 C13         4.5595    1.9682   -2.5514 C.3       1 <0>        -0.1394
     22 C14         4.6203    2.5764   -3.9542 C.3       1 <0>        -0.0069
     23 N8          4.0448    3.9265   -3.9315 N.4       1 <0>        -0.5057
     24 C15         2.6252    3.8567   -3.5647 C.3       1 <0>        -0.0022
     25 C16         2.4877    3.2978   -2.1469 C.3       1 <0>        -0.1556
     26 H1         -1.2449   -1.5294   -0.9396 H         1 <0>         0.0711
     27 H2         -0.7816   -0.5594   -2.3583 H         1 <0>         0.0856
     28 H3          0.4237   -1.5946   -1.5559 H         1 <0>         0.0645
     29 H4          0.7900    0.7444   -0.9069 H         1 <0>         0.0849
     30 H5         -0.9040    0.8885   -0.3797 H         1 <0>         0.1086
     31 H6          4.9152   -0.9450    1.0369 H         1 <0>         0.1674
     32 H7          2.5099   -1.8366    4.3023 H         1 <0>         0.1765
     33 H8         -1.6783   -1.3356    4.4010 H         1 <0>         0.4309
     34 H9         -3.2943   -1.2922    4.8587 H         1 <0>         0.4214
     35 H10         3.9954   -0.4517   -1.0865 H         1 <0>         0.0969
     36 H11         2.2325   -0.4577   -1.3326 H         1 <0>         0.0483
     37 H12         2.2346    1.7480   -0.2331 H         1 <0>         0.3481
     38 H13         2.5430    1.2302   -2.7565 H         1 <0>         0.0648
     39 H14         5.1259    2.5917   -1.8596 H         1 <0>         0.0996
     40 H15         4.9856    0.9652   -2.5708 H         1 <0>         0.1121
     41 H16         5.6585    2.6299   -4.2819 H         1 <0>         0.1374
     42 H17         4.0538    1.9521   -4.6452 H         1 <0>         0.1295
     43 H18         4.5384    4.4901   -3.2557 H         1 <0>         0.4300
     44 H19         2.1905    4.8555   -3.6048 H         1 <0>         0.1374
     45 H20         2.1013    3.2051   -4.2640 H         1 <0>         0.1311
     46 H21         1.4329    3.2451   -1.8771 H         1 <0>         0.1088
     47 H22         3.0111    3.9489   -1.4467 H         1 <0>         0.1014
     48 H23         4.1348    4.3448   -4.8453 H         1 <0>         0.4337
@<TRIPOS>BOND
     1    1    2 1
     2    1   26 1
     3    1   27 1
     4    1   28 1
     5    2    3 1
     6    2   29 1
     7    2   30 1
     8    3   11 1
     9    3    4 1
    10    4    9 ar
    11    4    5 ar
    12    5    6 ar
    13    5   18 1
    14    6    7 ar
    15    6   31 1
    16    7    8 ar
    17    8    9 ar
    18    8   32 1
    19    9   10 1
    20   10   11 2
    21   11   12 1
    22   12   16 2
    23   12   13 1
    24   13   14 2
    25   13   17 1
    26   14   15 1
    27   15   16 1
    28   17   33 1
    29   17   34 1
    30   18   19 1
    31   18   35 1
    32   18   36 1
    33   19   20 1
    34   19   37 1
    35   20   25 1
    36   20   21 1
    37   20   38 1
    38   21   22 1
    39   21   39 1
    40   21   40 1
    41   22   23 1
    42   22   41 1
    43   22   42 1
    44   23   24 1
    45   23   43 1
    46   23   48 1
    47   24   25 1
    48   24   44 1
    49   24   45 1
    50   25   46 1
    51   25   47 1
@<TRIPOS>MOLECULE
CHEMBL188434
   49    52     0     0     0
SMALL
USER_CHARGES

@<TRIPOS>ATOM
      1 C1         -0.9653   -0.9729    1.0914 C.3       1 <0>        -0.1766
      2 C2         -0.3908    0.1999    0.2944 C.3       1 <0>         0.0831
      3 N1          0.5813   -0.3016   -0.6802 N.pl3     1 <0>        -0.4450
      4 C3          0.3289   -0.6222   -1.9924 C.ar      1 <0>         0.1342
      5 C4         -0.7940   -0.6040   -2.8124 C.ar      1 <0>        -0.0626
      6 C5         -0.6667   -1.0110   -4.1228 C.ar      1 <0>         0.1203
      7 N2          0.4964   -1.4147   -4.6070 N.ar      1 <0>        -0.4385
      8 C6          1.5900   -1.4519   -3.8760 C.ar      1 <0>         0.2406
      9 C7          1.5550   -1.0574   -2.5364 C.ar      1 <0>         0.0349
     10 N3          2.4767   -0.9824   -1.5490 N.2       1 <0>        -0.4223
     11 C8          1.9129   -0.5329   -0.4549 C.2       1 <0>         0.3992
     12 C9          2.6091   -0.3115    0.8319 C.2       1 <0>         0.1036
     13 C10         4.0349   -0.5477    1.0907 C.2       1 <0>         0.3634
     14 N4          4.2821   -0.2400    2.3342 N.2       1 <0>        -0.3237
     15 O1          3.0710    0.1963    2.9251 O.3       1 <0>         0.0734
     16 N5          2.0615    0.1337    1.9333 N.2       1 <0>        -0.2349
     17 N6          4.9617   -1.0180    0.1696 N.pl3     1 <0>        -0.7998
     18 C11        -2.1268   -0.1476   -2.2773 C.3       1 <0>         0.0842
     19 N7         -2.1757    1.3206   -2.2722 N.3       1 <0>        -0.6775
     20 C12        -3.4095    1.8040   -1.6383 C.3       1 <0>         0.0702
     21 C13        -4.5357    1.8456   -2.6752 C.3       1 <0>        -0.1391
     22 C14        -5.7959    2.4245   -2.0286 C.3       1 <0>        -0.0083
     23 N8         -5.5225    3.7836   -1.5463 N.4       1 <0>        -0.5069
     24 C15        -4.4938    3.7433   -0.5000 C.3       1 <0>        -0.0034
     25 C16        -3.1835    3.2151   -1.0878 C.3       1 <0>        -0.1562
     26 H1         -1.5175   -1.6318    0.4213 H         1 <0>         0.0685
     27 H2         -0.1518   -1.5283    1.5581 H         1 <0>         0.0778
     28 H3         -1.6360   -0.5942    1.8627 H         1 <0>         0.1010
     29 H4         -1.1974    0.7137   -0.2285 H         1 <0>         0.0960
     30 H5          0.1020    0.8947    0.9745 H         1 <0>         0.1260
     31 H6         -1.5335   -1.0006   -4.7670 H         1 <0>         0.2177
     32 H7          2.5181   -1.7892   -4.3134 H         1 <0>         0.2294
     33 H8          4.6839   -1.2211   -0.7373 H         1 <0>         0.4274
     34 H9          5.8867   -1.1434    0.4332 H         1 <0>         0.4277
     35 H10        -2.9247   -0.5355   -2.9106 H         1 <0>         0.1168
     36 H11        -2.2567   -0.5190   -1.2608 H         1 <0>         0.0700
     37 H12        -1.3611    1.7079   -1.8201 H         1 <0>         0.3501
     38 H13        -3.6870    1.1351   -0.8237 H         1 <0>         0.0723
     39 H14        -4.2354    2.4738   -3.5138 H         1 <0>         0.1013
     40 H15        -4.7402    0.8358   -3.0311 H         1 <0>         0.1118
     41 H16        -6.5998    2.4553   -2.7641 H         1 <0>         0.1408
     42 H17        -6.0955    1.7954   -1.1904 H         1 <0>         0.1317
     43 H18        -5.1982    4.3529   -2.3137 H         1 <0>         0.4310
     44 H19        -4.3364    4.7477   -0.1070 H         1 <0>         0.1414
     45 H20        -4.8212    3.0861    0.3056 H         1 <0>         0.1333
     46 H21        -2.4215    3.1842   -0.3090 H         1 <0>         0.1100
     47 H22        -2.8551    3.8718   -1.8935 H         1 <0>         0.1035
     48 H23        -6.3692    4.1822   -1.1689 H         1 <0>         0.4383
     49 H24         0.5447   -1.6937   -5.5348 H         1 <0>         0.4643
@<TRIPOS>BOND
     1    1    2 1
     2    1   26 1
     3    1   27 1
     4    1   28 1
     5    2    3 1
     6    2   29 1
     7    2   30 1
     8    3   11 1
     9    3    4 1
    10    4    9 ar
    11    4    5 ar
    12    5    6 ar
    13    5   18 1
    14    6    7 ar
    15    6   31 1
    16    7    8 ar
    17    7   49 1
    18    8    9 ar
    19    8   32 1
    20    9   10 1
    21   10   11 2
    22   11   12 1
    23   12   16 2
    24   12   13 1
    25   13   14 2
    26   13   17 1
    27   14   15 1
    28   15   16 1
    29   17   33 1
    30   17   34 1
    31   18   19 1
    32   18   35 1
    33   18   36 1
    34   19   20 1
    35   19   37 1
    36   20   25 1
    37   20   21 1
    38   20   38 1
    39   21   22 1
    40   21   39 1
    41   21   40 1
    42   22   23 1
    43   22   41 1
    44   22   42 1
    45   23   24 1
    46   23   43 1
    47   23   48 1
    48   24   25 1
    49   24   44 1
    50   24   45 1
    51   25   46 1
    52   25   47 1
@<TRIPOS>MOLECULE
CHEMBL210403
   60    64     0     0     0
SMALL
USER_CHARGES

@<TRIPOS>ATOM
      1 C1         -0.0184    1.5028    0.0103 C.3       1 <0>        -0.0806
      2 C2          0.0021   -0.0041    0.0020 C.2       1 <0>         0.1087
      3 C3          0.0083   -0.8581   -1.1820 C.ar      1 <0>        -0.1762
      4 C4         -0.0019   -0.6082   -2.5573 C.ar      1 <0>        -0.0088
      5 C5          0.0079   -1.6738   -3.4431 C.ar      1 <0>        -0.1052
      6 C6          0.0279   -2.9891   -2.9631 C.ar      1 <0>        -0.0534
      7 C7          0.0380   -3.2410   -1.6234 C.ar      1 <0>        -0.1372
      8 C8          0.0285   -2.1860   -0.7124 C.ar      1 <0>         0.1436
      9 N1          0.0337   -2.1193    0.6566 N.pl3     1 <0>        -0.5047
     10 H1          0.0468   -2.8812    1.2569 H         1 <0>         0.4442
     11 N2          0.0230   -0.7772    1.0497 N.2       1 <0>        -0.2438
     12 C9         -0.0034   -1.4202   -4.9053 C.ar      1 <0>        -0.0278
     13 C10         0.0004   -2.4846   -5.8096 C.ar      1 <0>        -0.1018
     14 C11        -0.0110   -2.1940   -7.1677 C.ar      1 <0>         0.0710
     15 C12        -0.0257   -0.8671   -7.5756 C.ar      1 <0>         0.0161
     16 N3         -0.0289    0.1132   -6.6940 N.ar      1 <0>        -0.4367
     17 C13        -0.0238   -0.1167   -5.3969 C.ar      1 <0>         0.0805
     18 O1         -0.0074   -3.1961   -8.0859 O.3       1 <0>        -0.3225
     19 C14        -0.0198   -2.8144   -9.4629 C.3       1 <0>         0.0288
     20 C15        -0.0136   -4.0682  -10.3397 C.3       1 <0>         0.0432
     21 H2          0.8359   -4.6958  -10.0703 H         1 <0>         0.1533
     22 C16         0.0989   -3.6615  -11.8104 C.3       1 <0>        -0.0871
     23 C17         0.2286   -4.8962  -12.6646 C.ar      1 <0>        -0.1617
     24 C18         1.4973   -5.4254  -12.9530 C.ar      1 <0>        -0.0046
     25 C19         2.6676   -4.8241  -12.4581 C.ar      1 <0>        -0.1368
     26 C20         3.8804   -5.3640  -12.7572 C.ar      1 <0>        -0.0816
     27 C21         3.9814   -6.5066  -13.5490 C.ar      1 <0>        -0.1196
     28 C22         2.8702   -7.1157  -14.0456 C.ar      1 <0>        -0.0858
     29 C23         1.6001   -6.5876  -13.7578 C.ar      1 <0>        -0.0802
     30 C24         0.4308   -7.1907  -14.2532 C.ar      1 <0>        -0.0358
     31 C25        -0.7828   -6.6541  -13.9559 C.ar      1 <0>        -0.1987
     32 C26        -0.8870   -5.5103  -13.1579 C.ar      1 <0>         0.1280
     33 O2         -2.1142   -5.0007  -12.8735 O.3       1 <0>        -0.3392
     34 C27        -3.2435   -5.6866  -13.4177 C.3       1 <0>         0.0184
     35 N4         -1.2605   -4.8167  -10.1327 N.4       1 <0>        -0.6312
     36 H3          1.0042    1.8801    0.0026 H         1 <0>         0.0877
     37 H4         -0.5455    1.8639   -0.8728 H         1 <0>         0.0842
     38 H5         -0.5286    1.8543    0.9071 H         1 <0>         0.0842
     39 H6         -0.0177    0.4067   -2.9264 H         1 <0>         0.1365
     40 H7          0.0350   -3.8127   -3.6617 H         1 <0>         0.1317
     41 H8          0.0531   -4.2604   -1.2670 H         1 <0>         0.1330
     42 H9          0.0123   -3.5071   -5.4619 H         1 <0>         0.1473
     43 H10        -0.0343   -0.6345   -8.6302 H         1 <0>         0.1569
     44 H11        -0.0314    0.7142   -4.7071 H         1 <0>         0.1665
     45 H12        -0.9167   -2.2306   -9.6700 H         1 <0>         0.0931
     46 H13         0.8631   -2.2138   -9.6814 H         1 <0>         0.1136
     47 H14        -0.7936   -3.1088  -12.1038 H         1 <0>         0.1087
     48 H15         0.9777   -3.0313  -11.9469 H         1 <0>         0.1241
     49 H16         2.6046   -3.9379  -11.8439 H         1 <0>         0.1291
     50 H17         4.7780   -4.9001  -12.3757 H         1 <0>         0.1314
     51 H18         4.9562   -6.9146  -13.7722 H         1 <0>         0.1320
     52 H19         2.9641   -8.0003  -14.6581 H         1 <0>         0.1348
     53 H20         0.4961   -8.0764  -14.8678 H         1 <0>         0.1407
     54 H21        -1.6790   -7.1198  -14.3385 H         1 <0>         0.1396
     55 H22        -3.1745   -5.6941  -14.5055 H         1 <0>         0.0685
     56 H23        -3.2591   -6.7116  -13.0475 H         1 <0>         0.0639
     57 H24        -4.1584   -5.1771  -13.1152 H         1 <0>         0.1110
     58 H25        -1.2564   -5.6436  -10.7110 H         1 <0>         0.4338
     59 H26        -1.3347   -5.0850   -9.1628 H         1 <0>         0.4387
     60 H27        -2.0469   -4.2358  -10.3821 H         1 <0>         0.4343
@<TRIPOS>BOND
     1    1    2 1
     2    1   36 1
     3    1   37 1
     4    1   38 1
     5    2   11 2
     6    2    3 1
     7    3    8 ar
     8    3    4 ar
     9    4    5 ar
    10    4   39 1
    11    5    6 ar
    12    5   12 1
    13    6    7 ar
    14    6   40 1
    15    7    8 ar
    16    7   41 1
    17    8    9 1
    18    9   10 1
    19    9   11 1
    20   12   17 ar
    21   12   13 ar
    22   13   14 ar
    23   13   42 1
    24   14   15 ar
    25   14   18 1
    26   15   16 ar
    27   15   43 1
    28   16   17 ar
    29   17   44 1
    30   18   19 1
    31   19   20 1
    32   19   45 1
    33   19   46 1
    34   20   21 1
    35   20   22 1
    36   20   35 1
    37   22   23 1
    38   22   47 1
    39   22   48 1
    40   23   32 ar
    41   23   24 ar
    42   24   29 ar
    43   24   25 ar
    44   25   26 ar
    45   25   49 1
    46   26   27 ar
    47   26   50 1
    48   27   28 ar
    49   27   51 1
    50   28   29 ar
    51   28   52 1
    52   29   30 ar
    53   30   31 ar
    54   30   53 1
    55   31   32 ar
    56   31   54 1
    57   32   33 1
    58   33   34 1
    59   34   55 1
    60   34   56 1
    61   34   57 1
    62   35   58 1
    63   35   59 1
    64   35   60 1
@<TRIPOS>MOLECULE
CHEMBL212259
   56    59     0     0     0
SMALL
USER_CHARGES

@<TRIPOS>ATOM
      1 C1         -0.0184    1.5028    0.0103 C.3       1 <0>        -0.0807
      2 C2          0.0021   -0.0041    0.0020 C.2       1 <0>         0.1088
      3 C3          0.0083   -0.8581   -1.1820 C.ar      1 <0>        -0.1763
      4 C4         -0.0019   -0.6082   -2.5573 C.ar      1 <0>        -0.0082
      5 C5          0.0079   -1.6738   -3.4431 C.ar      1 <0>        -0.1062
      6 C6          0.0279   -2.9891   -2.9631 C.ar      1 <0>        -0.0534
      7 C7          0.0380   -3.2410   -1.6234 C.ar      1 <0>        -0.1371
      8 C8          0.0285   -2.1860   -0.7124 C.ar      1 <0>         0.1440
      9 N1          0.0337   -2.1193    0.6566 N.pl3     1 <0>        -0.5045
     10 H1          0.0468   -2.8812    1.2569 H         1 <0>         0.4444
     11 N2          0.0230   -0.7772    1.0497 N.2       1 <0>        -0.2435
     12 C9         -0.0034   -1.4202   -4.9053 C.ar      1 <0>        -0.0270
     13 C10         0.0004   -2.4846   -5.8096 C.ar      1 <0>        -0.1016
     14 C11        -0.0110   -2.1940   -7.1677 C.ar      1 <0>         0.0698
     15 C12        -0.0257   -0.8671   -7.5756 C.ar      1 <0>         0.0161
     16 N3         -0.0289    0.1132   -6.6940 N.ar      1 <0>        -0.4368
     17 C13        -0.0238   -0.1167   -5.3969 C.ar      1 <0>         0.0812
     18 O1         -0.0074   -3.1961   -8.0859 O.3       1 <0>        -0.3237
     19 C14        -0.0198   -2.8144   -9.4629 C.3       1 <0>         0.0277
     20 C15        -0.0136   -4.0682  -10.3397 C.3       1 <0>         0.0354
     21 H2          0.8359   -4.6958  -10.0703 H         1 <0>         0.1561
     22 C16         0.0989   -3.6615  -11.8104 C.3       1 <0>        -0.1436
     23 C17         0.2306   -4.9150  -12.6776 C.3       1 <0>        -0.0956
     24 C18         1.5465   -5.6245  -12.3521 C.3       1 <0>        -0.1253
     25 C19         1.6782   -6.8780  -13.2193 C.3       1 <0>        -0.1224
     26 C20         1.6653   -6.4799  -14.6965 C.3       1 <0>        -0.1266
     27 C21         0.3494   -5.7705  -15.0221 C.3       1 <0>        -0.1230
     28 C22         0.2177   -4.5169  -14.1548 C.3       1 <0>        -0.1154
     29 N4         -1.2605   -4.8167  -10.1327 N.4       1 <0>        -0.6365
     30 H3          1.0042    1.8801    0.0026 H         1 <0>         0.0879
     31 H4         -0.5455    1.8639   -0.8728 H         1 <0>         0.0842
     32 H5         -0.5286    1.8543    0.9071 H         1 <0>         0.0843
     33 H6         -0.0177    0.4067   -2.9264 H         1 <0>         0.1366
     34 H7          0.0350   -3.8127   -3.6617 H         1 <0>         0.1316
     35 H8          0.0531   -4.2604   -1.2670 H         1 <0>         0.1332
     36 H9          0.0123   -3.5071   -5.4619 H         1 <0>         0.1475
     37 H10        -0.0343   -0.6345   -8.6302 H         1 <0>         0.1562
     38 H11        -0.0314    0.7142   -4.7071 H         1 <0>         0.1670
     39 H12        -0.9167   -2.2306   -9.6700 H         1 <0>         0.0915
     40 H13         0.8631   -2.2138   -9.6814 H         1 <0>         0.1130
     41 H14        -0.7936   -3.1088  -12.1038 H         1 <0>         0.0970
     42 H15         0.9777   -3.0313  -11.9469 H         1 <0>         0.1189
     43 H16        -0.6039   -5.5864  -12.4749 H         1 <0>         0.0661
     44 H17         2.3810   -4.9531  -12.5547 H         1 <0>         0.0766
     45 H18         1.5557   -5.9081  -11.2997 H         1 <0>         0.0592
     46 H19         2.6157   -7.3834  -12.9874 H         1 <0>         0.0699
     47 H20         0.8437   -7.5494  -13.0166 H         1 <0>         0.0623
     48 H21         2.4998   -5.8086  -14.8992 H         1 <0>         0.0661
     49 H22         1.7592   -7.3730  -15.3143 H         1 <0>         0.0684
     50 H23         0.3402   -5.4869  -16.0745 H         1 <0>         0.0707
     51 H24        -0.4851   -6.4418  -14.8194 H         1 <0>         0.0627
     52 H25        -0.7198   -4.0115  -14.3868 H         1 <0>         0.0685
     53 H26         1.0522   -3.8456  -14.3575 H         1 <0>         0.0729
     54 H27        -1.2564   -5.6436  -10.7110 H         1 <0>         0.4362
     55 H28        -1.3347   -5.0850   -9.1628 H         1 <0>         0.4420
     56 H29        -2.0469   -4.2358  -10.3821 H         1 <0>         0.4335
@<TRIPOS>BOND
     1    1    2 1
     2    1   30 1
     3    1   31 1
     4    1   32 1
     5    2   11 2
     6    2    3 1
     7    3    8 ar
     8    3    4 ar
     9    4    5 ar
    10    4   33 1
    11    5    6 ar
    12    5   12 1
    13    6    7 ar
    14    6   34 1
    15    7    8 ar
    16    7   35 1
    17    8    9 1
    18    9   10 1
    19    9   11 1
    20   12   17 ar
    21   12   13 ar
    22   13   14 ar
    23   13   36 1
    24   14   15 ar
    25   14   18 1
    26   15   16 ar
    27   15   37 1
    28   16   17 ar
    29   17   38 1
    30   18   19 1
    31   19   20 1
    32   19   39 1
    33   19   40 1
    34   20   21 1
    35   20   22 1
    36   20   29 1
    37   22   23 1
    38   22   41 1
    39   22   42 1
    40   23   28 1
    41   23   24 1
    42   23   43 1
    43   24   25 1
    44   24   44 1
    45   24   45 1
    46   25   26 1
    47   25   46 1
    48   25   47 1
    49   26   27 1
    50   26   48 1
    51   26   49 1
    52   27   28 1
    53   27   50 1
    54   27   51 1
    55   28   52 1
    56   28   53 1
    57   29   54 1
    58   29   55 1
    59   29   56 1
@<TRIPOS>MOLECULE
CHEMBL209826
   72    77     0     0     0
SMALL
USER_CHARGES

@<TRIPOS>ATOM
      1 C1         -0.0187    1.5258    0.0104 C.3       1 <0>        -0.1482
      2 C2          0.0021   -0.0041    0.0020 C.3       1 <0>        -0.0306
      3 C3          0.7421   -0.5109    1.2415 C.3       1 <0>        -0.1565
      4 C4         -1.4333   -0.5336    0.0129 C.3       1 <0>        -0.0399
      5 C5         -2.1387   -0.0476    1.2528 C.2       1 <0>        -0.1277
      6 C6         -2.8634    1.0833    1.4347 C.2       1 <0>        -0.1596
      7 C7         -3.4269    1.3264    2.6732 C.2       1 <0>        -0.1550
      8 C8         -3.2380    0.4267    3.6693 C.2       1 <0>        -0.1758
      9 S1         -2.2431   -0.8158    2.8609 S.3       1 <0>         0.0301
     10 C9          0.7182   -0.4975   -1.2568 C.3       1 <0>        -0.0755
     11 C10         2.1085    0.0900   -1.3399 C.ar      1 <0>        -0.1238
     12 C11         3.2103   -0.0015   -0.5234 C.ar      1 <0>        -0.0450
     13 C12         4.3853    0.6677   -0.8662 C.ar      1 <0>        -0.0831
     14 C13         4.4299    1.4243   -2.0363 C.ar      1 <0>        -0.0638
     15 C14         3.3219    1.5109   -2.8489 C.ar      1 <0>        -0.1371
     16 C15         2.1456    0.8426   -2.5084 C.ar      1 <0>         0.1663
     17 N1          0.9141    0.7806   -3.1603 N.am      1 <0>        -0.6602
     18 C16         0.0252    0.0207   -2.4989 C.2       1 <0>         0.5342
     19 O1         -1.1179   -0.2073   -2.8341 O.2       1 <0>        -0.4822
     20 C17         5.5796    0.5754    0.0091 C.ar      1 <0>        -0.0337
     21 C18         6.7577    1.2477   -0.3253 C.ar      1 <0>        -0.0987
     22 C19         7.8474    1.1289    0.5274 C.ar      1 <0>         0.0701
     23 C20         7.7292    0.3529    1.6726 C.ar      1 <0>         0.0195
     24 N2          6.6018   -0.2686    1.9572 N.ar      1 <0>        -0.4369
     25 C21         5.5417   -0.1787    1.1803 C.ar      1 <0>         0.0843
     26 O2          9.0152    1.7640    0.2442 O.3       1 <0>        -0.3228
     27 C22        10.0889    1.5916    1.1712 C.3       1 <0>         0.0263
     28 C23        11.3108    2.3753    0.6879 C.3       1 <0>         0.0434
     29 H1         11.5603    2.0690   -0.3280 H         1 <0>         0.1529
     30 C24        12.4968    2.0917    1.6119 C.3       1 <0>        -0.0556
     31 C25        13.7302    2.7648    1.0672 C.2       1 <0>        -0.2377
     32 C26        14.6620    2.2067    0.2783 C.2       1 <0>         0.1040
     33 N3         15.6349    3.1231   -0.0149 N.pl3     1 <0>        -0.5845
     34 H2         16.4125    2.9523   -0.5689 H         1 <0>         0.4265
     35 C27        15.3455    4.3239    0.5936 C.ar      1 <0>         0.0987
     36 C28        14.1364    4.1540    1.2929 C.ar      1 <0>        -0.1171
     37 C29        13.5898    5.2207    2.0085 C.ar      1 <0>        -0.1141
     38 C30        14.2311    6.4274    2.0230 C.ar      1 <0>        -0.1190
     39 C31        15.4218    6.6013    1.3314 C.ar      1 <0>        -0.0932
     40 C32        15.9837    5.5593    0.6263 C.ar      1 <0>        -0.1109
     41 N4         11.0090    3.8129    0.7057 N.4       1 <0>        -0.6363
     42 H3          1.0039    1.9031    0.0027 H         1 <0>         0.0595
     43 H4         -0.5459    1.8868   -0.8726 H         1 <0>         0.0517
     44 H5         -0.5289    1.8773    0.9072 H         1 <0>         0.0704
     45 H6          0.2319   -0.1594    2.1383 H         1 <0>         0.0719
     46 H7          0.7568   -1.6008    1.2356 H         1 <0>         0.0631
     47 H8          1.7647   -0.1336    1.2338 H         1 <0>         0.0645
     48 H9         -1.9605   -0.1726   -0.8702 H         1 <0>         0.1045
     49 H10        -1.4185   -1.6235    0.0069 H         1 <0>         0.0840
     50 H11        -2.9983    1.7841    0.6241 H         1 <0>         0.1300
     51 H12        -4.0086    2.2200    2.8448 H         1 <0>         0.1325
     52 H13        -3.5991    0.4528    4.6868 H         1 <0>         0.1845
     53 H14         0.7602   -1.5866   -1.2691 H         1 <0>         0.1308
     54 H15         3.1664   -0.5896    0.3814 H         1 <0>         0.1401
     55 H16         5.3370    1.9447   -2.3062 H         1 <0>         0.1329
     56 H17         3.3634    2.0990   -3.7537 H         1 <0>         0.1339
     57 H18         0.7213    1.2346   -3.9955 H         1 <0>         0.4170
     58 H19         6.8195    1.8439   -1.2236 H         1 <0>         0.1479
     59 H20         8.5731    0.2566    2.3396 H         1 <0>         0.1576
     60 H21         4.6351   -0.6992    1.4514 H         1 <0>         0.1660
     61 H22         9.7854    1.9599    2.1512 H         1 <0>         0.0921
     62 H23        10.3408    0.5335    1.2427 H         1 <0>         0.1140
     63 H24        12.2819    2.4783    2.6081 H         1 <0>         0.0999
     64 H25        12.6646    1.0161    1.6680 H         1 <0>         0.1219
     65 H26        14.6463    1.1854   -0.0726 H         1 <0>         0.1791
     66 H27        12.6632    5.0929    2.5484 H         1 <0>         0.1149
     67 H28        13.8078    7.2524    2.5767 H         1 <0>         0.1312
     68 H29        15.9165    7.5611    1.3518 H         1 <0>         0.1352
     69 H30        16.9100    5.7049    0.0904 H         1 <0>         0.1294
     70 H31        11.8148    4.3297    0.3870 H         1 <0>         0.4381
     71 H32        10.2269    3.9999    0.0964 H         1 <0>         0.4391
     72 H33        10.7780    4.0964    1.6461 H         1 <0>         0.4299
@<TRIPOS>BOND
     1    1    2 1
     2    1   42 1
     3    1   43 1
     4    1   44 1
     5    2    3 1
     6    2    4 1
     7    2   10 1
     8    3   45 1
     9    3   46 1
    10    3   47 1
    11    4    5 1
    12    4   48 1
    13    4   49 1
    14    5    9 1
    15    5    6 2
    16    6    7 1
    17    6   50 1
    18    7    8 2
    19    7   51 1
    20    8    9 1
    21    8   52 1
    22   10   18 1
    23   10   11 1
    24   10   53 1
    25   11   16 ar
    26   11   12 ar
    27   12   13 ar
    28   12   54 1
    29   13   14 ar
    30   13   20 1
    31   14   15 ar
    32   14   55 1
    33   15   16 ar
    34   15   56 1
    35   16   17 1
    36   17   18 am
    37   17   57 1
    38   18   19 2
    39   20   25 ar
    40   20   21 ar
    41   21   22 ar
    42   21   58 1
    43   22   23 ar
    44   22   26 1
    45   23   24 ar
    46   23   59 1
    47   24   25 ar
    48   25   60 1
    49   26   27 1
    50   27   28 1
    51   27   61 1
    52   27   62 1
    53   28   29 1
    54   28   30 1
    55   28   41 1
    56   30   31 1
    57   30   63 1
    58   30   64 1
    59   31   36 1
    60   31   32 2
    61   32   33 1
    62   32   65 1
    63   33   34 1
    64   33   35 1
    65   35   40 ar
    66   35   36 ar
    67   36   37 ar
    68   37   38 ar
    69   37   66 1
    70   38   39 ar
    71   38   67 1
    72   39   40 ar
    73   39   68 1
    74   40   69 1
    75   41   70 1
    76   41   71 1
    77   41   72 1
@<TRIPOS>MOLECULE
CHEMBL209826
   72    77     0     0     0
SMALL
USER_CHARGES

@<TRIPOS>ATOM
      1 C1         -0.0187    1.5258    0.0104 C.3       1 <0>        -0.1530
      2 C2          0.0021   -0.0041    0.0020 C.3       1 <0>        -0.0308
      3 C3          0.7421   -0.5109    1.2415 C.3       1 <0>        -0.1518
      4 C4         -1.4333   -0.5336    0.0129 C.3       1 <0>        -0.0404
      5 C5         -2.1387   -0.0476    1.2528 C.2       1 <0>        -0.1283
      6 C6         -2.8634    1.0833    1.4347 C.2       1 <0>        -0.1597
      7 C7         -3.4269    1.3264    2.6732 C.2       1 <0>        -0.1556
      8 C8         -3.2380    0.4267    3.6693 C.2       1 <0>        -0.1763
      9 S1         -2.2431   -0.8158    2.8609 S.3       1 <0>         0.0305
     10 C9          0.7182   -0.4975   -1.2568 C.3       1 <0>        -0.0751
     11 C10         2.1673   -0.0674   -1.2448 C.ar      1 <0>        -0.1241
     12 C11         2.7744    1.1656   -1.2297 C.ar      1 <0>        -0.0449
     13 C12         4.1666    1.2533   -1.2218 C.ar      1 <0>        -0.0835
     14 C13         4.9296    0.0866   -1.2293 C.ar      1 <0>        -0.0636
     15 C14         4.3138   -1.1447   -1.2445 C.ar      1 <0>        -0.1371
     16 C15         2.9217   -1.2352   -1.2524 C.ar      1 <0>         0.1667
     17 N1          2.0834   -2.3499   -1.2680 N.am      1 <0>        -0.6602
     18 C16         0.7837   -2.0098   -1.2715 C.2       1 <0>         0.5337
     19 O1         -0.1601   -2.7716   -1.2841 O.2       1 <0>        -0.4818
     20 C17         4.8310    2.5797   -1.2059 C.ar      1 <0>        -0.0334
     21 C18         6.2247    2.6749   -1.2038 C.ar      1 <0>        -0.0987
     22 C19         6.7976    3.9399   -1.1887 C.ar      1 <0>         0.0703
     23 C20         5.9724    5.0564   -1.1763 C.ar      1 <0>         0.0194
     24 N2          4.6601    4.9297   -1.1784 N.ar      1 <0>        -0.4370
     25 C21         4.0744    3.7499   -1.1988 C.ar      1 <0>         0.0841
     26 O2          8.1492    4.0832   -1.1855 O.3       1 <0>        -0.3227
     27 C22         8.6600    5.4177   -1.1697 C.3       1 <0>         0.0264
     28 C23        10.1895    5.3783   -1.1684 C.3       1 <0>         0.0434
     29 H1         10.5366    4.7701   -0.3331 H         1 <0>         0.1529
     30 C24        10.7362    6.8001   -1.0258 C.3       1 <0>        -0.0555
     31 C25        12.2373    6.7510   -0.9012 C.2       1 <0>        -0.2376
     32 C26        12.9438    6.7408    0.2401 C.2       1 <0>         0.1040
     33 N3         14.2823    6.6924   -0.0401 N.pl3     1 <0>        -0.5845
     34 H2         14.9902    6.6764    0.6229 H         1 <0>         0.4266
     35 C27        14.4746    6.6697   -1.4033 C.ar      1 <0>         0.0988
     36 C28        13.2018    6.6990   -2.0025 C.ar      1 <0>        -0.1171
     37 C29        13.0862    6.6792   -3.3935 C.ar      1 <0>        -0.1141
     38 C30        14.2115    6.6278   -4.1671 C.ar      1 <0>        -0.1190
     39 C31        15.4691    6.5945   -3.5809 C.ar      1 <0>        -0.0932
     40 C32        15.6065    6.6226   -2.2101 C.ar      1 <0>        -0.1110
     41 N4         10.6653    4.7949   -2.4299 N.4       1 <0>        -0.6363
     42 H3          1.0039    1.9031    0.0027 H         1 <0>         0.0632
     43 H4         -0.5459    1.8868   -0.8726 H         1 <0>         0.0623
     44 H5         -0.5289    1.8773    0.9072 H         1 <0>         0.0711
     45 H6          0.2319   -0.1594    2.1383 H         1 <0>         0.0714
     46 H7          0.7568   -1.6008    1.2356 H         1 <0>         0.0524
     47 H8          1.7647   -0.1336    1.2338 H         1 <0>         0.0609
     48 H9         -1.9605   -0.1726   -0.8702 H         1 <0>         0.0907
     49 H10        -1.4185   -1.6235    0.0069 H         1 <0>         0.0980
     50 H11        -2.9983    1.7841    0.6241 H         1 <0>         0.1320
     51 H12        -4.0086    2.2200    2.8448 H         1 <0>         0.1328
     52 H13        -3.5991    0.4528    4.6868 H         1 <0>         0.1842
     53 H14         0.2154   -0.1282   -2.1506 H         1 <0>         0.1307
     54 H15         2.1752    2.0642   -1.2242 H         1 <0>         0.1399
     55 H16         6.0078    0.1488   -1.2236 H         1 <0>         0.1329
     56 H17         4.9111   -2.0445   -1.2506 H         1 <0>         0.1340
     57 H18         2.4024   -3.2659   -1.2757 H         1 <0>         0.4171
     58 H19         6.8407    1.7878   -1.2132 H         1 <0>         0.1479
     59 H20         6.4119    6.0429   -1.1646 H         1 <0>         0.1576
     60 H21         2.9961    3.6888   -1.2048 H         1 <0>         0.1658
     61 H22         8.3110    5.9509   -2.0540 H         1 <0>         0.0921
     62 H23         8.3091    5.9305   -0.2742 H         1 <0>         0.1139
     63 H24        10.4635    7.3841   -1.9049 H         1 <0>         0.0999
     64 H25        10.3127    7.2646   -0.1354 H         1 <0>         0.1218
     65 H26        12.5188    6.7672    1.2326 H         1 <0>         0.1791
     66 H27        12.1108    6.7042   -3.8566 H         1 <0>         0.1149
     67 H28        14.1216    6.6125   -5.2433 H         1 <0>         0.1312
     68 H29        16.3491    6.5532   -4.2056 H         1 <0>         0.1353
     69 H30        16.5895    6.5951   -1.7635 H         1 <0>         0.1294
     70 H31        11.6740    4.7689   -2.4291 H         1 <0>         0.4381
     71 H32        10.3048    3.8572   -2.5239 H         1 <0>         0.4391
     72 H33        10.3440    5.3579   -3.2031 H         1 <0>         0.4300
@<TRIPOS>BOND
     1    1    2 1
     2    1   42 1
     3    1   43 1
     4    1   44 1
     5    2    3 1
     6    2    4 1
     7    2   10 1
     8    3   45 1
     9    3   46 1
    10    3   47 1
    11    4    5 1
    12    4   48 1
    13    4   49 1
    14    5    9 1
    15    5    6 2
    16    6    7 1
    17    6   50 1
    18    7    8 2
    19    7   51 1
    20    8    9 1
    21    8   52 1
    22   10   18 1
    23   10   11 1
    24   10   53 1
    25   11   16 ar
    26   11   12 ar
    27   12   13 ar
    28   12   54 1
    29   13   14 ar
    30   13   20 1
    31   14   15 ar
    32   14   55 1
    33   15   16 ar
    34   15   56 1
    35   16   17 1
    36   17   18 am
    37   17   57 1
    38   18   19 2
    39   20   25 ar
    40   20   21 ar
    41   21   22 ar
    42   21   58 1
    43   22   23 ar
    44   22   26 1
    45   23   24 ar
    46   23   59 1
    47   24   25 ar
    48   25   60 1
    49   26   27 1
    50   27   28 1
    51   27   61 1
    52   27   62 1
    53   28   29 1
    54   28   30 1
    55   28   41 1
    56   30   31 1
    57   30   63 1
    58   30   64 1
    59   31   36 1
    60   31   32 2
    61   32   33 1
    62   32   65 1
    63   33   34 1
    64   33   35 1
    65   35   40 ar
    66   35   36 ar
    67   36   37 ar
    68   37   38 ar
    69   37   66 1
    70   38   39 ar
    71   38   67 1
    72   39   40 ar
    73   39   68 1
    74   40   69 1
    75   41   70 1
    76   41   71 1
    77   41   72 1
@<TRIPOS>MOLECULE
CHEMBL263510
   53    57     0     0     0
SMALL
USER_CHARGES

@<TRIPOS>ATOM
      1 C1         -0.0184    1.5028    0.0103 C.3       1 <0>        -0.0807
      2 C2          0.0021   -0.0041    0.0020 C.2       1 <0>         0.1088
      3 C3          0.0083   -0.8581   -1.1820 C.ar      1 <0>        -0.1763
      4 C4         -0.0019   -0.6082   -2.5573 C.ar      1 <0>        -0.0084
      5 C5          0.0079   -1.6738   -3.4431 C.ar      1 <0>        -0.1060
      6 C6          0.0279   -2.9891   -2.9631 C.ar      1 <0>        -0.0534
      7 C7          0.0380   -3.2410   -1.6234 C.ar      1 <0>        -0.1371
      8 C8          0.0285   -2.1860   -0.7124 C.ar      1 <0>         0.1440
      9 N1          0.0337   -2.1193    0.6566 N.pl3     1 <0>        -0.5045
     10 H1          0.0468   -2.8812    1.2569 H         1 <0>         0.4444
     11 N2          0.0230   -0.7772    1.0497 N.2       1 <0>        -0.2435
     12 C9         -0.0034   -1.4202   -4.9053 C.ar      1 <0>        -0.0270
     13 C10         0.0004   -2.4846   -5.8096 C.ar      1 <0>        -0.1014
     14 C11        -0.0110   -2.1940   -7.1677 C.ar      1 <0>         0.0699
     15 C12        -0.0257   -0.8671   -7.5756 C.ar      1 <0>         0.0159
     16 N3         -0.0289    0.1132   -6.6940 N.ar      1 <0>        -0.4367
     17 C13        -0.0238   -0.1167   -5.3969 C.ar      1 <0>         0.0811
     18 O1         -0.0074   -3.1961   -8.0859 O.3       1 <0>        -0.3225
     19 C14        -0.0198   -2.8144   -9.4629 C.3       1 <0>         0.0278
     20 C15        -0.0136   -4.0682  -10.3397 C.3       1 <0>         0.0433
     21 H2          0.8359   -4.6958  -10.0703 H         1 <0>         0.1560
     22 C16         0.0989   -3.6615  -11.8104 C.3       1 <0>        -0.0815
     23 C17         0.2286   -4.8962  -12.6646 C.2       1 <0>        -0.1651
     24 C18         1.4391   -5.3463  -13.0247 C.2       1 <0>        -0.1170
     25 S1          1.0726   -6.7915  -14.0019 S.3       1 <0>         0.0885
     26 C19        -0.6981   -6.7512  -13.8996 C.ar      1 <0>        -0.1158
     27 C20        -0.9587   -5.6157  -13.1019 C.ar      1 <0>        -0.1068
     28 C21        -2.3179   -5.3248  -12.8382 C.ar      1 <0>        -0.1269
     29 C22        -3.3067   -6.1157  -13.3340 C.ar      1 <0>        -0.0982
     30 C23        -3.0235   -7.2299  -14.1121 C.ar      1 <0>        -0.0876
     31 C24        -1.7095   -7.5422  -14.4003 C.ar      1 <0>        -0.0571
     32 N4         -1.2605   -4.8167  -10.1327 N.4       1 <0>        -0.6385
     33 H3          1.0042    1.8801    0.0026 H         1 <0>         0.0878
     34 H4         -0.5455    1.8639   -0.8728 H         1 <0>         0.0842
     35 H5         -0.5286    1.8543    0.9071 H         1 <0>         0.0843
     36 H6         -0.0177    0.4067   -2.9264 H         1 <0>         0.1365
     37 H7          0.0350   -3.8127   -3.6617 H         1 <0>         0.1317
     38 H8          0.0531   -4.2604   -1.2670 H         1 <0>         0.1332
     39 H9          0.0123   -3.5071   -5.4619 H         1 <0>         0.1476
     40 H10        -0.0343   -0.6345   -8.6302 H         1 <0>         0.1565
     41 H11        -0.0314    0.7142   -4.7071 H         1 <0>         0.1669
     42 H12        -0.9167   -2.2306   -9.6700 H         1 <0>         0.0924
     43 H13         0.8631   -2.2138   -9.6814 H         1 <0>         0.1151
     44 H14        -0.7936   -3.1088  -12.1038 H         1 <0>         0.1033
     45 H15         0.9777   -3.0313  -11.9469 H         1 <0>         0.1279
     46 H16         2.4061   -4.9317  -12.7813 H         1 <0>         0.1993
     47 H17        -2.5730   -4.4652  -12.2362 H         1 <0>         0.1146
     48 H18        -4.3361   -5.8716  -13.1171 H         1 <0>         0.1371
     49 H19        -3.8252   -7.8440  -14.4950 H         1 <0>         0.1452
     50 H20        -1.4757   -8.4067  -15.0040 H         1 <0>         0.1419
     51 H21        -1.3347   -5.0850   -9.1628 H         1 <0>         0.4408
     52 H22        -2.0469   -4.2358  -10.3821 H         1 <0>         0.4293
     53 H23        -1.2564   -5.6436  -10.7110 H         1 <0>         0.4367
@<TRIPOS>BOND
     1    1    2 1
     2    1   33 1
     3    1   34 1
     4    1   35 1
     5    2   11 2
     6    2    3 1
     7    3    8 ar
     8    3    4 ar
     9    4    5 ar
    10    4   36 1
    11    5    6 ar
    12    5   12 1
    13    6    7 ar
    14    6   37 1
    15    7    8 ar
    16    7   38 1
    17    8    9 1
    18    9   10 1
    19    9   11 1
    20   12   17 ar
    21   12   13 ar
    22   13   14 ar
    23   13   39 1
    24   14   15 ar
    25   14   18 1
    26   15   16 ar
    27   15   40 1
    28   16   17 ar
    29   17   41 1
    30   18   19 1
    31   19   20 1
    32   19   42 1
    33   19   43 1
    34   20   21 1
    35   20   22 1
    36   20   32 1
    37   22   23 1
    38   22   44 1
    39   22   45 1
    40   23   27 1
    41   23   24 2
    42   24   25 1
    43   24   46 1
    44   25   26 1
    45   26   31 ar
    46   26   27 ar
    47   27   28 ar
    48   28   29 ar
    49   28   47 1
    50   29   30 ar
    51   29   48 1
    52   30   31 ar
    53   30   49 1
    54   31   50 1
    55   32   51 1
    56   32   52 1
    57   32   53 1
@<TRIPOS>MOLECULE
CHEMBL378870
   47    50     0     0     0
SMALL
USER_CHARGES

@<TRIPOS>ATOM
      1 C1         -0.0184    1.5028    0.0103 C.3       1 <0>        -0.0807
      2 C2          0.0021   -0.0041    0.0020 C.2       1 <0>         0.1088
      3 C3          0.0083   -0.8581   -1.1820 C.ar      1 <0>        -0.1763
      4 C4         -0.0019   -0.6082   -2.5573 C.ar      1 <0>        -0.0084
      5 C5          0.0079   -1.6738   -3.4431 C.ar      1 <0>        -0.1059
      6 C6          0.0279   -2.9891   -2.9631 C.ar      1 <0>        -0.0534
      7 C7          0.0380   -3.2410   -1.6234 C.ar      1 <0>        -0.1371
      8 C8          0.0285   -2.1860   -0.7124 C.ar      1 <0>         0.1439
      9 N1          0.0337   -2.1193    0.6566 N.pl3     1 <0>        -0.5045
     10 H1          0.0468   -2.8812    1.2569 H         1 <0>         0.4444
     11 N2          0.0230   -0.7772    1.0497 N.2       1 <0>        -0.2435
     12 C9         -0.0034   -1.4202   -4.9053 C.ar      1 <0>        -0.0274
     13 C10         0.0004   -2.4846   -5.8096 C.ar      1 <0>        -0.1012
     14 C11        -0.0110   -2.1940   -7.1677 C.ar      1 <0>         0.0701
     15 C12        -0.0257   -0.8671   -7.5756 C.ar      1 <0>         0.0165
     16 N3         -0.0289    0.1132   -6.6940 N.ar      1 <0>        -0.4367
     17 C13        -0.0238   -0.1167   -5.3969 C.ar      1 <0>         0.0812
     18 O1         -0.0074   -3.1961   -8.0859 O.3       1 <0>        -0.3240
     19 C14        -0.0198   -2.8144   -9.4629 C.3       1 <0>         0.0314
     20 C15        -0.0136   -4.0682  -10.3397 C.3       1 <0>         0.0981
     21 H2          0.8359   -4.6958  -10.0703 H         1 <0>         0.1602
     22 C16         0.0972   -3.6676  -11.7883 C.ar      1 <0>        -0.1559
     23 C17        -1.0219   -3.2304  -12.4720 C.ar      1 <0>        -0.1183
     24 C18        -0.9203   -2.8630  -13.8008 C.ar      1 <0>        -0.1041
     25 C19         0.3005   -2.9322  -14.4456 C.ar      1 <0>        -0.0835
     26 C20         1.4198   -3.3684  -13.7616 C.ar      1 <0>        -0.1051
     27 C21         1.3190   -3.7318  -12.4317 C.ar      1 <0>        -0.0807
     28 N4         -1.2605   -4.8167  -10.1327 N.4       1 <0>        -0.6348
     29 H3          1.0042    1.8801    0.0026 H         1 <0>         0.0878
     30 H4         -0.5455    1.8639   -0.8728 H         1 <0>         0.0842
     31 H5         -0.5286    1.8543    0.9071 H         1 <0>         0.0843
     32 H6         -0.0177    0.4067   -2.9264 H         1 <0>         0.1365
     33 H7          0.0350   -3.8127   -3.6617 H         1 <0>         0.1317
     34 H8          0.0531   -4.2604   -1.2670 H         1 <0>         0.1332
     35 H9          0.0123   -3.5071   -5.4619 H         1 <0>         0.1479
     36 H10        -0.0343   -0.6345   -8.6302 H         1 <0>         0.1559
     37 H11        -0.0314    0.7142   -4.7071 H         1 <0>         0.1670
     38 H12        -0.9167   -2.2306   -9.6700 H         1 <0>         0.0917
     39 H13         0.8631   -2.2138   -9.6814 H         1 <0>         0.1140
     40 H14        -1.9756   -3.1764  -11.9682 H         1 <0>         0.1224
     41 H15        -1.7947   -2.5221  -14.3352 H         1 <0>         0.1383
     42 H16         0.3798   -2.6457  -15.4839 H         1 <0>         0.1386
     43 H17         2.3735   -3.4228  -14.2655 H         1 <0>         0.1401
     44 H18         2.1942   -4.0691  -11.8962 H         1 <0>         0.1372
     45 H19        -2.0469   -4.2358  -10.3821 H         1 <0>         0.4312
     46 H20        -1.2564   -5.6436  -10.7110 H         1 <0>         0.4412
     47 H21        -1.3347   -5.0850   -9.1628 H         1 <0>         0.4437
@<TRIPOS>BOND
     1    1    2 1
     2    1   29 1
     3    1   30 1
     4    1   31 1
     5    2   11 2
     6    2    3 1
     7    3    8 ar
     8    3    4 ar
     9    4    5 ar
    10    4   32 1
    11    5    6 ar
    12    5   12 1
    13    6    7 ar
    14    6   33 1
    15    7    8 ar
    16    7   34 1
    17    8    9 1
    18    9   10 1
    19    9   11 1
    20   12   17 ar
    21   12   13 ar
    22   13   14 ar
    23   13   35 1
    24   14   15 ar
    25   14   18 1
    26   15   16 ar
    27   15   36 1
    28   16   17 ar
    29   17   37 1
    30   18   19 1
    31   19   20 1
    32   19   38 1
    33   19   39 1
    34   20   21 1
    35   20   22 1
    36   20   28 1
    37   22   27 ar
    38   22   23 ar
    39   23   24 ar
    40   23   40 1
    41   24   25 ar
    42   24   41 1
    43   25   26 ar
    44   25   42 1
    45   26   27 ar
    46   26   43 1
    47   27   44 1
    48   28   45 1
    49   28   46 1
    50   28   47 1
@<TRIPOS>MOLECULE
CHEMBL378870
   46    49     0     0     0
SMALL
USER_CHARGES

@<TRIPOS>ATOM
      1 C1         -0.0184    1.5028    0.0103 C.3       1 <0>        -0.0785
      2 C2          0.0021   -0.0041    0.0020 C.2       1 <0>         0.1061
      3 C3          0.0083   -0.8581   -1.1820 C.ar      1 <0>        -0.1759
      4 C4         -0.0019   -0.6082   -2.5573 C.ar      1 <0>        -0.0178
      5 C5          0.0079   -1.6738   -3.4431 C.ar      1 <0>        -0.0887
      6 C6          0.0279   -2.9891   -2.9631 C.ar      1 <0>        -0.0524
      7 C7          0.0380   -3.2410   -1.6234 C.ar      1 <0>        -0.1391
      8 C8          0.0285   -2.1860   -0.7124 C.ar      1 <0>         0.1379
      9 N1          0.0337   -2.1193    0.6566 N.pl3     1 <0>        -0.5084
     10 H1          0.0468   -2.8812    1.2569 H         1 <0>         0.4419
     11 N2          0.0230   -0.7772    1.0497 N.2       1 <0>        -0.2498
     12 C9         -0.0034   -1.4202   -4.9053 C.ar      1 <0>        -0.0402
     13 C10         0.0004   -2.4846   -5.8096 C.ar      1 <0>        -0.1086
     14 C11        -0.0110   -2.1940   -7.1677 C.ar      1 <0>         0.0911
     15 C12        -0.0257   -0.8671   -7.5756 C.ar      1 <0>         0.0083
     16 N3         -0.0289    0.1132   -6.6940 N.ar      1 <0>        -0.4416
     17 C13        -0.0238   -0.1167   -5.3969 C.ar      1 <0>         0.0631
     18 O1         -0.0074   -3.1961   -8.0859 O.3       1 <0>        -0.2909
     19 C14        -0.0198   -2.8144   -9.4629 C.3       1 <0>         0.0698
     20 C15        -0.0136   -4.0682  -10.3397 C.3       1 <0>         0.1373
     21 H2          0.8359   -4.6958  -10.0703 H         1 <0>         0.1020
     22 C16         0.0972   -3.6676  -11.7883 C.ar      1 <0>        -0.1272
     23 C17        -1.0219   -3.2304  -12.4720 C.ar      1 <0>        -0.1157
     24 C18        -0.9203   -2.8630  -13.8008 C.ar      1 <0>        -0.1154
     25 C19         0.3005   -2.9322  -14.4456 C.ar      1 <0>        -0.1149
     26 C20         1.4198   -3.3684  -13.7616 C.ar      1 <0>        -0.1164
     27 C21         1.3190   -3.7318  -12.4317 C.ar      1 <0>        -0.1060
     28 N4         -1.2605   -4.8167  -10.1327 N.3       1 <0>        -0.8300
     29 H3          1.0042    1.8801    0.0026 H         1 <0>         0.0856
     30 H4         -0.5455    1.8639   -0.8728 H         1 <0>         0.0839
     31 H5         -0.5286    1.8543    0.9071 H         1 <0>         0.0813
     32 H6         -0.0177    0.4067   -2.9264 H         1 <0>         0.1353
     33 H7          0.0350   -3.8127   -3.6617 H         1 <0>         0.1353
     34 H8          0.0531   -4.2604   -1.2670 H         1 <0>         0.1313
     35 H9          0.0123   -3.5071   -5.4619 H         1 <0>         0.1453
     36 H10        -0.0343   -0.6345   -8.6302 H         1 <0>         0.1556
     37 H11        -0.0314    0.7142   -4.7071 H         1 <0>         0.1595
     38 H12        -0.9167   -2.2306   -9.6700 H         1 <0>         0.0657
     39 H13         0.8631   -2.2138   -9.6814 H         1 <0>         0.0711
     40 H14        -1.9756   -3.1764  -11.9682 H         1 <0>         0.1206
     41 H15        -1.7947   -2.5221  -14.3352 H         1 <0>         0.1249
     42 H16         0.3798   -2.6457  -15.4839 H         1 <0>         0.1246
     43 H17         2.3735   -3.4228  -14.2655 H         1 <0>         0.1255
     44 H18         2.1942   -4.0691  -11.8962 H         1 <0>         0.1252
     45 H19        -2.0634   -4.2560  -10.3756 H         1 <0>         0.3407
     46 H20        -1.2533   -5.6820  -10.6518 H         1 <0>         0.3485
@<TRIPOS>BOND
     1    1    2 1
     2    1   29 1
     3    1   30 1
     4    1   31 1
     5    2   11 2
     6    2    3 1
     7    3    8 ar
     8    3    4 ar
     9    4    5 ar
    10    4   32 1
    11    5    6 ar
    12    5   12 1
    13    6    7 ar
    14    6   33 1
    15    7    8 ar
    16    7   34 1
    17    8    9 1
    18    9   10 1
    19    9   11 1
    20   12   17 ar
    21   12   13 ar
    22   13   14 ar
    23   13   35 1
    24   14   15 ar
    25   14   18 1
    26   15   16 ar
    27   15   36 1
    28   16   17 ar
    29   17   37 1
    30   18   19 1
    31   19   20 1
    32   19   38 1
    33   19   39 1
    34   20   21 1
    35   20   22 1
    36   20   28 1
    37   22   27 ar
    38   22   23 ar
    39   23   24 ar
    40   23   40 1
    41   24   25 ar
    42   24   41 1
    43   25   26 ar
    44   25   42 1
    45   26   27 ar
    46   26   43 1
    47   27   44 1
    48   28   45 1
    49   28   46 1
@<TRIPOS>MOLECULE
CHEMBL263664
   45    48     0     0     0
SMALL
USER_CHARGES

@<TRIPOS>ATOM
      1 C1         -0.0882    1.3827    0.2252 C.ar      1 <0>        -0.0942
      2 C2          1.0786    2.1186    0.3118 C.ar      1 <0>        -0.0974
      3 C3          2.3042    1.4774    0.2839 C.ar      1 <0>        -0.0252
      4 C4          2.3611    0.0998    0.1693 C.ar      1 <0>        -0.0993
      5 C5          1.1937   -0.6350    0.0827 C.ar      1 <0>        -0.1289
      6 C6         -0.0307    0.0063    0.1106 C.ar      1 <0>        -0.1209
      7 C7         -1.3032   -0.7955    0.0166 C.3       1 <0>        -0.0985
      8 C8         -1.7039   -0.9460   -1.4523 C.3       1 <0>         0.0700
      9 C9         -1.9253    0.4389   -2.0648 C.3       1 <0>        -0.1563
     10 C10        -3.0174    1.1716   -1.2792 C.3       1 <0>         0.1516
     11 N1         -4.2202    0.3286   -1.2429 N.pl3     1 <0>        -0.6551
     12 C11        -4.1004   -1.0525   -0.7560 C.3       1 <0>         0.1515
     13 C12        -2.9961   -1.7603   -1.5475 C.3       1 <0>        -0.1516
     14 C13        -5.4421    0.8258   -1.6586 C.ar      1 <0>         0.4616
     15 C14        -6.3060    1.4612   -0.7533 C.ar      1 <0>        -0.2036
     16 C15        -6.2611    1.7774    0.6731 C.2       1 <0>        -0.1760
     17 C16        -7.4099    2.4078    0.9674 C.2       1 <0>         0.0692
     18 N2         -8.1818    2.5171   -0.1604 N.pl3     1 <0>        -0.5702
     19 H1         -9.0561    2.9355   -0.1975 H         1 <0>         0.4280
     20 C17        -7.5377    1.9503   -1.2255 C.ar      1 <0>         0.3224
     21 N3         -7.8346    1.7898   -2.5144 N.ar      1 <0>        -0.5247
     22 C18        -6.9944    1.1871   -3.3272 C.ar      1 <0>         0.3276
     23 N4         -5.8256    0.7188   -2.9273 N.ar      1 <0>        -0.5494
     24 N5         -0.6341   -1.6386   -2.1829 N.4       1 <0>        -0.6362
     25 Cl1         3.7701    2.4010    0.3922 Cl        1 <0>        -0.0444
     26 H2         -1.0451    1.8828    0.2515 H         1 <0>         0.1403
     27 H3          1.0335    3.1940    0.4010 H         1 <0>         0.1436
     28 H4          3.3176   -0.4013    0.1471 H         1 <0>         0.1427
     29 H5          1.2380   -1.7103   -0.0072 H         1 <0>         0.1324
     30 H6         -1.1443   -1.7818    0.4527 H         1 <0>         0.1029
     31 H7         -2.0971   -0.2821    0.5590 H         1 <0>         0.1259
     32 H8         -0.9980    1.0100   -2.0178 H         1 <0>         0.0976
     33 H9         -2.2347    0.3317   -3.1045 H         1 <0>         0.0974
     34 H10        -2.6723    1.3600   -0.2626 H         1 <0>         0.0726
     35 H11        -3.2486    2.1171   -1.7699 H         1 <0>         0.0900
     36 H12        -3.8436   -1.0455    0.3033 H         1 <0>         0.0744
     37 H13        -5.0462   -1.5745   -0.9015 H         1 <0>         0.0907
     38 H14        -3.2955   -1.8468   -2.5920 H         1 <0>         0.0983
     39 H15        -2.8311   -2.7545   -1.1323 H         1 <0>         0.0981
     40 H16        -5.4587    1.5479    1.3585 H         1 <0>         0.1539
     41 H17        -7.6848    2.7732    1.9458 H         1 <0>         0.1870
     42 H18        -7.2692    1.0747   -4.3656 H         1 <0>         0.2030
     43 H19        -0.4874   -2.5515   -1.7790 H         1 <0>         0.4325
     44 H20        -0.8981   -1.7379   -3.1517 H         1 <0>         0.4354
     45 H21         0.2182   -1.1021   -2.1199 H         1 <0>         0.4311
@<TRIPOS>BOND
     1    1    6 ar
     2    1    2 ar
     3    1   26 1
     4    2    3 ar
     5    2   27 1
     6    3    4 ar
     7    3   25 1
     8    4    5 ar
     9    4   28 1
    10    5    6 ar
    11    5   29 1
    12    6    7 1
    13    7    8 1
    14    7   30 1
    15    7   31 1
    16    8   13 1
    17    8    9 1
    18    8   24 1
    19    9   10 1
    20    9   32 1
    21    9   33 1
    22   10   11 1
    23   10   34 1
    24   10   35 1
    25   11   12 1
    26   11   14 1
    27   12   13 1
    28   12   36 1
    29   12   37 1
    30   13   38 1
    31   13   39 1
    32   14   23 ar
    33   14   15 ar
    34   15   20 ar
    35   15   16 1
    36   16   17 2
    37   16   40 1
    38   17   18 1
    39   17   41 1
    40   18   19 1
    41   18   20 1
    42   20   21 ar
    43   21   22 ar
    44   22   23 ar
    45   22   42 1
    46   24   43 1
    47   24   44 1
    48   24   45 1
@<TRIPOS>MOLECULE
CHEMBL203624
   52    55     0     0     0
SMALL
USER_CHARGES

@<TRIPOS>ATOM
      1 C1         -0.0165    1.3620    0.0095 C.ar      1 <0>        -0.1192
      2 C2          1.1697    2.0834    0.0021 C.ar      1 <0>        -0.0931
      3 C3          2.3856    1.4362   -0.0134 C.ar      1 <0>        -0.1110
      4 C4          2.4281    0.0456   -0.0212 C.ar      1 <0>         0.0985
      5 C5          1.2234   -0.6807   -0.0132 C.ar      1 <0>        -0.1177
      6 C6          0.0021   -0.0041    0.0020 C.ar      1 <0>        -0.1144
      7 C7          1.6036   -2.0953   -0.0245 C.2       1 <0>        -0.2382
      8 C8          2.9451   -2.1410   -0.0380 C.2       1 <0>         0.1027
      9 N1          3.4551   -0.8713   -0.0363 N.pl3     1 <0>        -0.5846
     10 H1          4.3995   -0.6501   -0.0442 H         1 <0>         0.4264
     11 C9          0.6664   -3.2754   -0.0210 C.3       1 <0>        -0.0544
     12 C10         0.2361   -3.5891   -1.4554 C.3       1 <0>         0.0271
     13 H2          1.1200   -3.7379   -2.0756 H         1 <0>         0.1486
     14 C11        -0.6144   -4.8610   -1.4661 C.3       1 <0>         0.0998
     15 N2         -1.1252   -5.0954   -2.8190 N.pl3     1 <0>        -0.7626
     16 C12        -1.9331   -6.2057   -3.0781 C.ar      1 <0>         0.1490
     17 C13        -2.4177   -6.4396   -4.3598 C.ar      1 <0>        -0.1319
     18 C14        -3.2227   -7.5661   -4.5677 C.ar      1 <0>        -0.0538
     19 C15        -3.5047   -8.4045   -3.4854 C.ar      1 <0>         0.0688
     20 N3         -3.0233   -8.1420   -2.2886 N.ar      1 <0>        -0.4394
     21 C16        -2.2574   -7.0933   -2.0585 C.ar      1 <0>         0.0382
     22 C17        -3.7644   -7.8629   -5.9060 C.2       1 <0>        -0.1084
     23 C18        -4.5352   -8.9462   -6.0932 C.2       1 <0>        -0.0851
     24 C19        -5.0767   -9.2429   -7.4311 C.ar      1 <0>        -0.0229
     25 C20        -4.7949   -8.4109   -8.5235 C.ar      1 <0>        -0.1672
     26 C21        -5.3225   -8.7271   -9.7574 C.ar      1 <0>         0.1031
     27 N4         -6.0823   -9.7943   -9.9167 N.ar      1 <0>        -0.4821
     28 C22        -6.3727  -10.6042   -8.9160 C.ar      1 <0>         0.1044
     29 C23        -5.8835  -10.3683   -7.6488 C.ar      1 <0>        -0.1576
     30 N5         -0.5518   -2.4687   -1.9863 N.4       1 <0>        -0.6374
     31 H3         -0.9613    1.8849    0.0259 H         1 <0>         0.1312
     32 H4          1.1388    3.1630    0.0081 H         1 <0>         0.1354
     33 H5          3.3028    2.0064   -0.0198 H         1 <0>         0.1295
     34 H6         -0.9246   -0.5587    0.0082 H         1 <0>         0.1145
     35 H7          3.5346   -3.0459   -0.0490 H         1 <0>         0.1788
     36 H8          1.1742   -4.1414    0.4036 H         1 <0>         0.1222
     37 H9         -0.2127   -3.0396    0.5787 H         1 <0>         0.0997
     38 H10        -0.0037   -5.7090   -1.1563 H         1 <0>         0.1097
     39 H11        -1.4508   -4.7445   -0.7770 H         1 <0>         0.0922
     40 H12        -0.9026   -4.4799   -3.5349 H         1 <0>         0.3933
     41 H13        -2.1800   -5.7702   -5.1733 H         1 <0>         0.1367
     42 H14        -4.1244   -9.2767   -3.6326 H         1 <0>         0.1610
     43 H15        -1.8803   -6.9188   -1.0616 H         1 <0>         0.1524
     44 H16        -3.5413   -7.2090   -6.7361 H         1 <0>         0.1291
     45 H17        -4.7583   -9.6001   -5.2631 H         1 <0>         0.1323
     46 H18        -4.1744   -7.5355   -8.4004 H         1 <0>         0.1354
     47 H19        -5.1112   -8.0925  -10.6053 H         1 <0>         0.1586
     48 H20        -6.9991  -11.4660   -9.0931 H         1 <0>         0.1610
     49 H21        -6.1218  -11.0378   -6.8356 H         1 <0>         0.1405
     50 H22         0.0090   -1.6300   -1.9793 H         1 <0>         0.4392
     51 H23        -0.8356   -2.6756   -2.9322 H         1 <0>         0.4282
     52 H24        -1.3700   -2.3311   -1.4122 H         1 <0>         0.4332
@<TRIPOS>BOND
     1    1    6 ar
     2    1    2 ar
     3    1   31 1
     4    2    3 ar
     5    2   32 1
     6    3    4 ar
     7    3   33 1
     8    4    9 1
     9    4    5 ar
    10    5    6 ar
    11    5    7 1
    12    6   34 1
    13    7    8 2
    14    7   11 1
    15    8    9 1
    16    8   35 1
    17    9   10 1
    18   11   12 1
    19   11   36 1
    20   11   37 1
    21   12   13 1
    22   12   14 1
    23   12   30 1
    24   14   15 1
    25   14   38 1
    26   14   39 1
    27   15   16 1
    28   15   40 1
    29   16   21 ar
    30   16   17 ar
    31   17   18 ar
    32   17   41 1
    33   18   19 ar
    34   18   22 1
    35   19   20 ar
    36   19   42 1
    37   20   21 ar
    38   21   43 1
    39   22   23 2
    40   22   44 1
    41   23   24 1
    42   23   45 1
    43   24   29 ar
    44   24   25 ar
    45   25   26 ar
    46   25   46 1
    47   26   27 ar
    48   26   47 1
    49   27   28 ar
    50   28   29 ar
    51   28   48 1
    52   29   49 1
    53   30   50 1
    54   30   51 1
    55   30   52 1
@<TRIPOS>MOLECULE
CHEMBL381703
   54    57     0     0     0
SMALL
USER_CHARGES

@<TRIPOS>ATOM
      1 C1         -0.9220    1.2051   -1.8281 C.ar      1 <0>        -0.1673
      2 C2         -1.5641    1.6002   -0.6687 C.ar      1 <0>        -0.0616
      3 C3         -1.8521    0.6776    0.3140 C.ar      1 <0>        -0.1763
      4 C4         -1.4986   -0.6632    0.1466 C.ar      1 <0>         0.2001
      5 C5         -0.8559   -1.0488   -1.0192 C.ar      1 <0>        -0.1896
      6 C6         -0.5689   -0.1201   -2.0012 C.ar      1 <0>        -0.0565
      7 C7         -0.5876   -2.5355   -0.9512 C.3       1 <0>        -0.0424
      8 C8         -1.1584   -2.9688    0.4090 C.3       1 <0>         0.1170
      9 N1         -1.6963   -1.7441    1.0073 N.pl3     1 <0>        -0.7466
     10 C9          0.9165   -2.8098   -1.0109 C.3       1 <0>        -0.1319
     11 C10         1.1572   -4.3190   -1.0821 C.3       1 <0>         0.0168
     12 H1          0.6481   -4.8077   -0.2514 H         1 <0>         0.1513
     13 C11         0.6111   -4.8608   -2.4046 C.3       1 <0>         0.0958
     14 N2          0.9468   -6.2816   -2.5262 N.pl3     1 <0>        -0.7591
     15 C12         0.5505   -6.9990   -3.6588 C.ar      1 <0>         0.1526
     16 C13         0.8597   -8.3489   -3.7801 C.ar      1 <0>        -0.1271
     17 C14         0.4407   -9.0232   -4.9332 C.ar      1 <0>        -0.0349
     18 C15        -0.2677   -8.3157   -5.9106 C.ar      1 <0>         0.1458
     19 N3         -0.5369   -7.0360   -5.7511 N.ar      1 <0>        -0.4314
     20 C16        -0.1622   -6.3727   -4.6742 C.ar      1 <0>         0.0588
     21 Cl1        -0.7967   -9.1323   -7.3483 Cl        1 <0>        -0.0115
     22 C17         0.7413  -10.4543   -5.1148 C.2       1 <0>        -0.1081
     23 C18         1.4223  -11.1226   -4.1698 C.2       1 <0>        -0.0811
     24 C19         1.7228  -12.5535   -4.3514 C.ar      1 <0>        -0.0250
     25 C20         1.3124  -13.2355   -5.5053 C.ar      1 <0>        -0.1633
     26 C21         1.6153  -14.5743   -5.6331 C.ar      1 <0>         0.1068
     27 N4          2.2807  -15.2122   -4.6886 N.ar      1 <0>        -0.4802
     28 C22         2.6858  -14.6092   -3.5868 C.ar      1 <0>         0.1033
     29 C23         2.4323  -13.2703   -3.3778 C.ar      1 <0>        -0.1604
     30 N5          2.5988   -4.5894   -1.0001 N.4       1 <0>        -0.6365
     31 H2         -0.7011    1.9292   -2.5983 H         1 <0>         0.1272
     32 H3         -1.8404    2.6354   -0.5326 H         1 <0>         0.1291
     33 H4         -2.3531    0.9929    1.2174 H         1 <0>         0.1220
     34 H5         -0.0675   -0.4303   -2.9061 H         1 <0>         0.1194
     35 H6         -1.1018   -3.0522   -1.7615 H         1 <0>         0.1010
     36 H7         -1.9528   -3.7020    0.2695 H         1 <0>         0.0736
     37 H8         -0.3683   -3.3809    1.0367 H         1 <0>         0.0630
     38 H9         -2.1265   -1.6920    1.8751 H         1 <0>         0.4181
     39 H10         1.3380   -2.3325   -1.8955 H         1 <0>         0.1027
     40 H11         1.3949   -2.4073   -0.1180 H         1 <0>         0.1004
     41 H12        -0.4720   -4.7401   -2.4271 H         1 <0>         0.1123
     42 H13         1.0553   -4.3102   -3.2339 H         1 <0>         0.0960
     43 H14         1.4440   -6.7245   -1.8209 H         1 <0>         0.3953
     44 H15         1.4088   -8.8637   -3.0055 H         1 <0>         0.1466
     45 H16        -0.4087   -5.3252   -4.5825 H         1 <0>         0.1617
     46 H17         0.4138  -10.9658   -6.0079 H         1 <0>         0.1396
     47 H18         1.7498  -10.6111   -3.2768 H         1 <0>         0.1260
     48 H19         0.7669  -12.7201   -6.2821 H         1 <0>         0.1389
     49 H20         1.3036  -15.1087   -6.5183 H         1 <0>         0.1613
     50 H21         3.2272  -15.1715   -2.8404 H         1 <0>         0.1599
     51 H22         2.7713  -12.7822   -2.4760 H         1 <0>         0.1365
     52 H23         2.9765   -4.1520   -0.1730 H         1 <0>         0.4411
     53 H24         2.7520   -5.5856   -0.9537 H         1 <0>         0.4326
     54 H25         3.0579   -4.2162   -1.8174 H         1 <0>         0.4382
@<TRIPOS>BOND
     1    1    6 ar
     2    1    2 ar
     3    1   31 1
     4    2    3 ar
     5    2   32 1
     6    3    4 ar
     7    3   33 1
     8    4    9 1
     9    4    5 ar
    10    5    6 ar
    11    5    7 1
    12    6   34 1
    13    7    8 1
    14    7   10 1
    15    7   35 1
    16    8    9 1
    17    8   36 1
    18    8   37 1
    19    9   38 1
    20   10   11 1
    21   10   39 1
    22   10   40 1
    23   11   12 1
    24   11   13 1
    25   11   30 1
    26   13   14 1
    27   13   41 1
    28   13   42 1
    29   14   15 1
    30   14   43 1
    31   15   20 ar
    32   15   16 ar
    33   16   17 ar
    34   16   44 1
    35   17   18 ar
    36   17   22 1
    37   18   19 ar
    38   18   21 1
    39   19   20 ar
    40   20   45 1
    41   22   23 2
    42   22   46 1
    43   23   24 1
    44   23   47 1
    45   24   29 ar
    46   24   25 ar
    47   25   26 ar
    48   25   48 1
    49   26   27 ar
    50   26   49 1
    51   27   28 ar
    52   28   29 ar
    53   28   50 1
    54   29   51 1
    55   30   52 1
    56   30   53 1
    57   30   54 1
@<TRIPOS>MOLECULE
CHEMBL381703
   54    57     0     0     0
SMALL
USER_CHARGES

@<TRIPOS>ATOM
      1 C1         -0.0167    1.3781    0.0096 C.ar      1 <0>        -0.1665
      2 C2          1.1736    2.0824    0.0020 C.ar      1 <0>        -0.0594
      3 C3          2.3771    1.4109   -0.0135 C.ar      1 <0>        -0.1751
      4 C4          2.4045    0.0144   -0.0213 C.ar      1 <0>         0.2025
      5 C5          1.2061   -0.6818   -0.0131 C.ar      1 <0>        -0.1933
      6 C6          0.0021   -0.0041    0.0020 C.ar      1 <0>        -0.0565
      7 C7          1.5104   -2.1630   -0.0232 C.3       1 <0>        -0.0532
      8 C8          3.0459   -2.2414   -0.0384 C.3       1 <0>         0.1138
      9 N1          3.5013   -0.8486   -0.0360 N.pl3     1 <0>        -0.7451
     10 C9          0.9542   -2.8309    1.2359 C.3       1 <0>        -0.1343
     11 C10         1.1634   -4.3439    1.1454 C.3       1 <0>         0.0194
     12 H1          2.2185   -4.5550    0.9714 H         1 <0>         0.1519
     13 C11         0.7214   -4.9990    2.4555 C.3       1 <0>         0.0991
     14 N2          0.8091   -6.4557    2.3269 N.pl3     1 <0>        -0.7597
     15 C12         0.4544   -7.2751    3.4027 C.ar      1 <0>         0.1525
     16 C13         0.5399   -8.6581    3.2916 C.ar      1 <0>        -0.1271
     17 C14         0.1732   -9.4351    4.3968 C.ar      1 <0>        -0.0349
     18 C15        -0.2616   -8.7923    5.5611 C.ar      1 <0>         0.1459
     19 N3         -0.3262   -7.4778    5.6188 N.ar      1 <0>        -0.4317
     20 C16         0.0176   -6.7165    4.5979 C.ar      1 <0>         0.0590
     21 Cl1        -0.7210   -9.7367    6.9435 Cl        1 <0>        -0.0115
     22 C17         0.2436  -10.9058    4.3349 C.2       1 <0>        -0.1081
     23 C18         0.6621  -11.5113    3.2118 C.2       1 <0>        -0.0811
     24 C19         0.7325  -12.9817    3.1499 C.ar      1 <0>        -0.0250
     25 C20         0.3619  -13.7680    4.2497 C.ar      1 <0>        -0.1633
     26 C21         0.4438  -15.1403    4.1472 C.ar      1 <0>         0.1068
     27 N4          0.8638  -15.7135    3.0351 N.ar      1 <0>        -0.4802
     28 C22         1.2223  -15.0117    1.9765 C.ar      1 <0>         0.1033
     29 C23         1.1664  -13.6343    1.9876 C.ar      1 <0>        -0.1604
     30 N5          0.3666   -4.8829    0.0352 N.4       1 <0>        -0.6384
     31 H2         -0.9584    1.9066    0.0259 H         1 <0>         0.1279
     32 H3          1.1599    3.1623    0.0080 H         1 <0>         0.1303
     33 H4          3.3030    1.9669   -0.0201 H         1 <0>         0.1232
     34 H5         -0.9265   -0.5555    0.0079 H         1 <0>         0.1182
     35 H6          1.0969   -2.6301   -0.9170 H         1 <0>         0.0814
     36 H7          3.4069   -2.7589    0.8504 H         1 <0>         0.0709
     37 H8          3.3896   -2.7502   -0.9390 H         1 <0>         0.0713
     38 H9          4.4297   -0.5675   -0.0441 H         1 <0>         0.4196
     39 H10         1.4740   -2.4440    2.1123 H         1 <0>         0.1227
     40 H11        -0.1110   -2.6159    1.3209 H         1 <0>         0.1033
     41 H12         1.3706   -4.6661    3.2653 H         1 <0>         0.1118
     42 H13        -0.3078   -4.7149    2.6747 H         1 <0>         0.0955
     43 H14         1.1133   -6.8518    1.4953 H         1 <0>         0.3953
     44 H15         0.8797   -9.1209    2.3768 H         1 <0>         0.1467
     45 H16        -0.0463   -5.6423    4.6906 H         1 <0>         0.1620
     46 H17        -0.0414  -11.4966    5.1929 H         1 <0>         0.1396
     47 H18         0.9471  -10.9204    2.3538 H         1 <0>         0.1261
     48 H19         0.0180  -13.3058    5.1632 H         1 <0>         0.1389
     49 H20         0.1606  -15.7549    4.9889 H         1 <0>         0.1613
     50 H21         1.5601  -15.5238    1.0877 H         1 <0>         0.1599
     51 H22         1.4567  -13.0666    1.1159 H         1 <0>         0.1365
     52 H23         0.6580   -4.4508   -0.8288 H         1 <0>         0.4379
     53 H24         0.5045   -5.8806   -0.0244 H         1 <0>         0.4319
     54 H25        -0.6101   -4.6874    0.1963 H         1 <0>         0.4383
@<TRIPOS>BOND
     1    1    6 ar
     2    1    2 ar
     3    1   31 1
     4    2    3 ar
     5    2   32 1
     6    3    4 ar
     7    3   33 1
     8    4    9 1
     9    4    5 ar
    10    5    6 ar
    11    5    7 1
    12    6   34 1
    13    7    8 1
    14    7   10 1
    15    7   35 1
    16    8    9 1
    17    8   36 1
    18    8   37 1
    19    9   38 1
    20   10   11 1
    21   10   39 1
    22   10   40 1
    23   11   12 1
    24   11   13 1
    25   11   30 1
    26   13   14 1
    27   13   41 1
    28   13   42 1
    29   14   15 1
    30   14   43 1
    31   15   20 ar
    32   15   16 ar
    33   16   17 ar
    34   16   44 1
    35   17   18 ar
    36   17   22 1
    37   18   19 ar
    38   18   21 1
    39   19   20 ar
    40   20   45 1
    41   22   23 2
    42   22   46 1
    43   23   24 1
    44   23   47 1
    45   24   29 ar
    46   24   25 ar
    47   25   26 ar
    48   25   48 1
    49   26   27 ar
    50   26   49 1
    51   27   28 ar
    52   28   29 ar
    53   28   50 1
    54   29   51 1
    55   30   52 1
    56   30   53 1
    57   30   54 1
@<TRIPOS>MOLECULE
CHEMBL1081029
   50    53     0     0     0
SMALL
USER_CHARGES

@<TRIPOS>ATOM
      1 C1         -0.0167    1.3781    0.0096 C.ar      1 <0>        -0.1414
      2 C2          1.1709    2.0855    0.0021 C.ar      1 <0>        -0.0581
      3 C3          2.3773    1.4107   -0.0130 C.ar      1 <0>        -0.1628
      4 C4          2.3960    0.0285   -0.0201 C.ar      1 <0>        -0.0559
      5 C5          1.2085   -0.6789   -0.0117 C.ar      1 <0>        -0.1023
      6 C6          0.0021   -0.0041    0.0020 C.ar      1 <0>        -0.0987
      7 C7         -1.2926   -0.7753    0.0107 C.3       1 <0>        -0.0996
      8 C8         -1.7450   -1.0285   -1.4288 C.3       1 <0>         0.0245
      9 H1         -0.9463   -1.5264   -1.9784 H         1 <0>         0.1552
     10 C9         -2.9907   -1.9168   -1.4231 C.3       1 <0>         0.1131
     11 N1         -3.4936   -2.0615   -2.7914 N.pl3     1 <0>        -0.7048
     12 C10        -4.6195   -2.8253   -3.0369 C.2       1 <0>         0.2802
     13 N2         -5.3652   -3.4843   -2.1716 N.2       1 <0>        -0.5627
     14 C11        -6.4159   -4.1727   -2.5606 C.2       1 <0>         0.0949
     15 C12        -6.6926   -4.1685   -3.9043 C.2       1 <0>        -0.1822
     16 S1         -5.3719   -3.1312   -4.5109 S.3       1 <0>         0.1399
     17 C13        -7.7823   -4.8324   -4.6426 C.ar      1 <0>         0.0338
     18 C14        -8.7287   -5.6002   -3.9550 C.ar      1 <0>        -0.1070
     19 C15        -9.7384   -6.2158   -4.6361 C.ar      1 <0>        -0.0329
     20 C16        -9.8300   -6.0799   -6.0263 C.ar      1 <0>        -0.1521
     21 C17        -8.8810   -5.3102   -6.7100 C.ar      1 <0>        -0.0736
     22 C18        -7.8757   -4.6912   -6.0323 C.ar      1 <0>        -0.0967
     23 C19        -9.2593   -5.3664   -8.1694 C.3       1 <0>         0.1390
     24 N3        -10.4612   -6.2044   -8.2486 N.am      1 <0>        -0.7229
     25 C20       -10.7863   -6.6133   -7.0105 C.2       1 <0>         0.5575
     26 O1        -11.7358   -7.3238   -6.7411 O.2       1 <0>        -0.5180
     27 N4         -2.0599    0.2523   -2.0756 N.4       1 <0>        -0.6402
     28 C21         3.6720    2.1819   -0.0222 C.3       1 <0>         0.5037
     29 F1          4.0857    2.4144    1.2938 F         1 <0>        -0.1688
     30 F2          4.6506    1.4423   -0.6949 F         1 <0>        -0.1714
     31 F3          3.4816    3.4050   -0.6742 F         1 <0>        -0.1728
     32 H2         -0.9591    1.9053    0.0259 H         1 <0>         0.1371
     33 H3          1.1563    3.1654    0.0076 H         1 <0>         0.1471
     34 H4          3.3385   -0.4987   -0.0326 H         1 <0>         0.1479
     35 H5          1.2231   -1.7588   -0.0179 H         1 <0>         0.1451
     36 H6         -1.1443   -1.7285    0.5180 H         1 <0>         0.1328
     37 H7         -2.0551   -0.1993    0.5352 H         1 <0>         0.1104
     38 H8         -2.7351   -2.8985   -1.0242 H         1 <0>         0.1175
     39 H9         -3.7596   -1.4603   -0.7997 H         1 <0>         0.1005
     40 H10        -3.0366   -1.6214   -3.5252 H         1 <0>         0.4107
     41 H11        -7.0305   -4.7148   -1.8572 H         1 <0>         0.1827
     42 H12        -8.6597   -5.7063   -2.8824 H         1 <0>         0.1391
     43 H13       -10.4668   -6.8083   -4.1025 H         1 <0>         0.1424
     44 H14        -7.1496   -4.0958   -6.5659 H         1 <0>         0.1302
     45 H15        -9.4762   -4.3642   -8.5392 H         1 <0>         0.1010
     46 H16        -8.4518   -5.8137   -8.7489 H         1 <0>         0.1012
     47 H17       -10.9419   -6.4269   -9.0612 H         1 <0>         0.4293
     48 H18        -2.7994    0.7132   -1.5668 H         1 <0>         0.4378
     49 H19        -1.2384    0.8381   -2.0794 H         1 <0>         0.4381
     50 H20        -2.3583    0.0853   -3.0249 H         1 <0>         0.4321
@<TRIPOS>BOND
     1    1    6 ar
     2    1    2 ar
     3    1   32 1
     4    2    3 ar
     5    2   33 1
     6    3    4 ar
     7    3   28 1
     8    4    5 ar
     9    4   34 1
    10    5    6 ar
    11    5   35 1
    12    6    7 1
    13    7    8 1
    14    7   36 1
    15    7   37 1
    16    8    9 1
    17    8   10 1
    18    8   27 1
    19   10   11 1
    20   10   38 1
    21   10   39 1
    22   11   12 1
    23   11   40 1
    24   12   16 1
    25   12   13 2
    26   13   14 1
    27   14   15 2
    28   14   41 1
    29   15   16 1
    30   15   17 1
    31   17   22 ar
    32   17   18 ar
    33   18   19 ar
    34   18   42 1
    35   19   20 ar
    36   19   43 1
    37   20   25 1
    38   20   21 ar
    39   21   22 ar
    40   21   23 1
    41   22   44 1
    42   23   24 1
    43   23   45 1
    44   23   46 1
    45   24   25 am
    46   24   47 1
    47   25   26 2
    48   27   48 1
    49   27   49 1
    50   27   50 1
    51   28   29 1
    52   28   30 1
    53   28   31 1
@<TRIPOS>MOLECULE
CHEMBL211281
   61    67     0     0     0
SMALL
USER_CHARGES

@<TRIPOS>ATOM
      1 C1         -0.0165    1.3620    0.0095 C.ar      1 <0>        -0.1441
      2 C2          1.1697    2.0834    0.0021 C.ar      1 <0>        -0.0960
      3 C3          2.3856    1.4362   -0.0134 C.ar      1 <0>        -0.1329
      4 C4          2.4281    0.0456   -0.0212 C.ar      1 <0>         0.0932
      5 C5          1.2234   -0.6807   -0.0132 C.ar      1 <0>        -0.0926
      6 C6          0.0021   -0.0041    0.0020 C.ar      1 <0>        -0.0710
      7 C7          1.6036   -2.0953   -0.0245 C.2       1 <0>        -0.1711
      8 C8          2.9451   -2.1410   -0.0380 C.2       1 <0>         0.0594
      9 N1          3.4551   -0.8713   -0.0363 N.pl3     1 <0>        -0.5940
     10 H1          4.3995   -0.6501   -0.0442 H         1 <0>         0.4167
     11 C9          0.6664   -3.2754   -0.0210 C.3       1 <0>        -0.0652
     12 C10         0.2361   -3.5891   -1.4554 C.3       1 <0>         0.1591
     13 H2          1.1200   -3.7379   -2.0756 H         1 <0>         0.1139
     14 C11        -0.6144   -4.8610   -1.4661 C.3       1 <0>         0.0272
     15 O1         -0.9189   -5.2190   -2.8156 O.3       1 <0>        -0.2958
     16 C12        -1.6731   -6.3341   -3.0030 C.ar      1 <0>         0.0900
     17 C13        -2.0061   -6.7500   -4.2855 C.ar      1 <0>        -0.0923
     18 C14        -2.7837   -7.9038   -4.4261 C.ar      1 <0>        -0.0260
     19 C15        -3.1916   -8.5872   -3.2797 C.ar      1 <0>         0.0910
     20 N2         -2.8517   -8.1553   -2.0832 N.ar      1 <0>        -0.4376
     21 C16        -2.1151   -7.0742   -1.9150 C.ar      1 <0>         0.0289
     22 C17        -3.1680   -8.3918   -5.7684 C.2       1 <0>        -0.0698
     23 C18        -3.9153   -9.4785   -6.0911 C.2       1 <0>        -0.1359
     24 C19        -4.1718   -9.7762   -7.4398 C.ar      1 <0>        -0.0424
     25 C20        -4.9177  -10.8473   -7.9986 C.ar      1 <0>        -0.1255
     26 C21        -5.0401  -10.9468   -9.3486 C.ar      1 <0>         0.0834
     27 N3         -4.4869  -10.0780  -10.1791 N.ar      1 <0>        -0.4602
     28 C22        -3.7787   -9.0561   -9.7315 C.ar      1 <0>         0.1609
     29 C23        -3.6053   -8.8801   -8.3799 C.ar      1 <0>        -0.1838
     30 S1         -2.7700   -7.6925   -7.3615 S.3       1 <0>         0.0936
     31 N4         -0.5497   -2.4718   -1.9849 N.pl3     1 <0>        -0.6774
     32 C24        -1.7283   -2.0925   -1.3564 C.2       1 <0>         0.1957
     33 C25        -2.5798   -1.0988   -1.7015 C.2       1 <0>        -0.2794
     34 C26        -3.7636   -0.8758   -0.8963 C.ar      1 <0>         0.0151
     35 C27        -4.7940    0.0871   -1.0475 C.ar      1 <0>        -0.1535
     36 C28        -5.8231    0.1119   -0.1591 C.ar      1 <0>         0.0953
     37 N5         -5.9062   -0.7349    0.8541 N.ar      1 <0>        -0.4800
     38 C29        -4.9817   -1.6585    1.0559 C.ar      1 <0>         0.1661
     39 C30        -3.9082   -1.7531    0.2056 C.ar      1 <0>        -0.2132
     40 S2         -2.4848   -2.8035    0.0932 S.3       1 <0>         0.0600
     41 H3         -0.9613    1.8849    0.0259 H         1 <0>         0.1189
     42 H4          1.1388    3.1630    0.0081 H         1 <0>         0.1240
     43 H5          3.3028    2.0064   -0.0198 H         1 <0>         0.1184
     44 H6         -0.9246   -0.5587    0.0082 H         1 <0>         0.1242
     45 H7          3.5346   -3.0459   -0.0490 H         1 <0>         0.1699
     46 H8          1.1742   -4.1414    0.4036 H         1 <0>         0.0921
     47 H9         -0.2127   -3.0396    0.5787 H         1 <0>         0.0869
     48 H10        -0.0618   -5.6715   -0.9910 H         1 <0>         0.0850
     49 H11        -1.5405   -4.6834   -0.9195 H         1 <0>         0.0786
     50 H12        -1.6737   -6.1968   -5.1514 H         1 <0>         0.1455
     51 H13        -3.7928   -9.4794   -3.3749 H         1 <0>         0.1642
     52 H14        -1.8553   -6.7578   -0.9156 H         1 <0>         0.1631
     53 H15        -4.3115  -10.1132   -5.3123 H         1 <0>         0.1462
     54 H16        -5.3846  -11.5783   -7.3552 H         1 <0>         0.1415
     55 H17        -5.6104  -11.7669   -9.7592 H         1 <0>         0.1613
     56 H18        -3.3360   -8.3595  -10.4281 H         1 <0>         0.1668
     57 H19        -0.2466   -1.9969   -2.7745 H         1 <0>         0.4170
     58 H20        -2.3798   -0.4808   -2.5644 H         1 <0>         0.1359
     59 H21        -4.7612    0.7956   -1.8619 H         1 <0>         0.1347
     60 H22        -6.6012    0.8502   -0.2851 H         1 <0>         0.1557
     61 H23        -5.0712   -2.3387    1.8901 H         1 <0>         0.1603
@<TRIPOS>BOND
     1    1    6 ar
     2    1    2 ar
     3    1   41 1
     4    2    3 ar
     5    2   42 1
     6    3    4 ar
     7    3   43 1
     8    4    9 1
     9    4    5 ar
    10    5    6 ar
    11    5    7 1
    12    6   44 1
    13    7    8 2
    14    7   11 1
    15    8    9 1
    16    8   45 1
    17    9   10 1
    18   11   12 1
    19   11   46 1
    20   11   47 1
    21   12   13 1
    22   12   14 1
    23   12   31 1
    24   14   15 1
    25   14   48 1
    26   14   49 1
    27   15   16 1
    28   16   21 ar
    29   16   17 ar
    30   17   18 ar
    31   17   50 1
    32   18   19 ar
    33   18   22 1
    34   19   20 ar
    35   19   51 1
    36   20   21 ar
    37   21   52 1
    38   22   30 1
    39   22   23 2
    40   23   24 1
    41   23   53 1
    42   24   29 ar
    43   24   25 ar
    44   25   26 ar
    45   25   54 1
    46   26   27 ar
    47   26   55 1
    48   27   28 ar
    49   28   29 ar
    50   28   56 1
    51   29   30 1
    52   31   32 1
    53   31   57 1
    54   32   40 1
    55   32   33 2
    56   33   34 1
    57   33   58 1
    58   34   39 ar
    59   34   35 ar
    60   35   36 ar
    61   35   59 1
    62   36   37 ar
    63   36   60 1
    64   37   38 ar
    65   38   39 ar
    66   38   61 1
    67   39   40 1
@<TRIPOS>MOLECULE
CHEMBL1170238
   43    46     0     0     0
SMALL
USER_CHARGES

@<TRIPOS>ATOM
      1 C1         -3.1726    0.2109    3.0042 C.3       1 <0>        -0.0793
      2 C2         -2.5829   -1.0624    2.4547 C.2       1 <0>        -0.1338
      3 C3         -3.2567   -2.1679    2.0976 C.2       1 <0>         0.0502
      4 N1         -2.3806   -3.1194    1.6429 N.pl3     1 <0>        -0.5715
      5 H1         -2.6319   -4.0020    1.3285 H         1 <0>         0.4241
      6 C4         -1.1002   -2.6414    1.6974 C.ar      1 <0>         0.3229
      7 C5         -1.1682   -1.3295    2.2021 C.ar      1 <0>        -0.2035
      8 C6          0.0231   -0.6039    2.3531 C.ar      1 <0>         0.4989
      9 N2          1.1665   -1.1891    2.0081 N.ar      1 <0>        -0.5528
     10 C7          1.1846   -2.4221    1.5349 C.ar      1 <0>         0.3285
     11 N3          0.0938   -3.1420    1.3845 N.ar      1 <0>        -0.5360
     12 N4          0.0088    0.6877    2.8479 N.pl3     1 <0>        -0.6686
     13 C8         -0.2221    1.9090    2.0551 C.3       1 <0>         0.1375
     14 C9         -0.7506    2.9493    3.0740 C.3       1 <0>        -0.1411
     15 C10         0.0878    2.6053    4.3335 C.3       1 <0>         0.1370
     16 H2         -0.4406    2.8989    5.2405 H         1 <0>         0.1091
     17 C11         0.2150    1.0695    4.2526 C.3       1 <0>         0.1313
     18 N5          1.4033    3.2469    4.2716 N.am      1 <0>        -0.7178
     19 C12         1.5602    4.5075    4.7220 C.2       1 <0>         0.5625
     20 O1          0.6101    5.1120    5.1795 O.2       1 <0>        -0.5329
     21 C13         2.8878    5.1550    4.6595 C.ar      1 <0>        -0.1385
     22 C14         3.9796    4.4657    4.1293 C.ar      1 <0>        -0.0856
     23 C15         5.2156    5.0759    4.0735 C.ar      1 <0>        -0.1273
     24 C16         5.3744    6.3680    4.5420 C.ar      1 <0>        -0.0923
     25 C17         4.2964    7.0567    5.0691 C.ar      1 <0>        -0.1277
     26 C18         3.0536    6.4603    5.1251 C.ar      1 <0>        -0.0592
     27 H3         -3.3280    0.9199    2.1910 H         1 <0>         0.0658
     28 H4         -4.1270   -0.0077    3.4831 H         1 <0>         0.0648
     29 H5         -2.4892    0.6416    3.7361 H         1 <0>         0.0704
     30 H6         -4.3281   -2.2891    2.1592 H         1 <0>         0.1827
     31 H7          2.1348   -2.8598    1.2668 H         1 <0>         0.2008
     32 H8          0.7109    2.2543    1.6097 H         1 <0>         0.0541
     33 H9         -0.9671    1.7237    1.2812 H         1 <0>         0.0652
     34 H10        -0.5482    3.9654    2.7355 H         1 <0>         0.0868
     35 H11        -1.8147    2.8064    3.2620 H         1 <0>         0.0889
     36 H12        -0.5426    0.5994    4.8796 H         1 <0>         0.0709
     37 H13         1.2097    0.7643    4.5775 H         1 <0>         0.0623
     38 H14         2.1615    2.7645    3.9064 H         1 <0>         0.4028
     39 H15         3.8571    3.4568    3.7640 H         1 <0>         0.1253
     40 H16         6.0612    4.5436    3.6635 H         1 <0>         0.1297
     41 H17         6.3443    6.8410    4.4963 H         1 <0>         0.1282
     42 H18         4.4271    8.0649    5.4334 H         1 <0>         0.1309
     43 H19         2.2119    7.0007    5.5323 H         1 <0>         0.1365
@<TRIPOS>BOND
     1    1    2 1
     2    1   27 1
     3    1   28 1
     4    1   29 1
     5    2    7 1
     6    2    3 2
     7    3    4 1
     8    3   30 1
     9    4    5 1
    10    4    6 1
    11    6   11 ar
    12    6    7 ar
    13    7    8 ar
    14    8    9 ar
    15    8   12 1
    16    9   10 ar
    17   10   11 ar
    18   10   31 1
    19   12   17 1
    20   12   13 1
    21   13   14 1
    22   13   32 1
    23   13   33 1
    24   14   15 1
    25   14   34 1
    26   14   35 1
    27   15   16 1
    28   15   17 1
    29   15   18 1
    30   17   36 1
    31   17   37 1
    32   18   19 am
    33   18   38 1
    34   19   20 2
    35   19   21 1
    36   21   26 ar
    37   21   22 ar
    38   22   23 ar
    39   22   39 1
    40   23   24 ar
    41   23   40 1
    42   24   25 ar
    43   24   41 1
    44   25   26 ar
    45   25   42 1
    46   26   43 1
@<TRIPOS>MOLECULE
CHEMBL182101
   72    78     0     0     0
SMALL
USER_CHARGES

@<TRIPOS>ATOM
      1 C1         -0.0460   -3.3262   -1.4089 C.3       1 <0>         0.0757
      2 N1         -0.0096   -2.0939   -0.6175 N.pl3     1 <0>        -0.3729
      3 C2          0.1024   -0.8228   -1.0770 C.2       1 <0>         0.2808
      4 N2          0.0934   -0.0303   -0.0256 N.2       1 <0>        -0.3120
      5 N3         -0.0161   -0.7170    1.0539 N.2       1 <0>        -0.0281
      6 N4         -0.0895   -1.9746    0.7811 N.2       1 <0>        -0.0663
      7 C3          0.2137   -0.4056   -2.4921 C.ar      1 <0>        -0.0717
      8 C4         -0.1634   -1.2771   -3.5181 C.ar      1 <0>        -0.0460
      9 C5         -0.0403   -0.8390   -4.8347 C.ar      1 <0>        -0.0763
     10 C6          0.4548    0.4532   -5.0784 C.ar      1 <0>         0.1831
     11 N5          0.8005    1.2460   -4.0727 N.ar      1 <0>        -0.4587
     12 C7          0.6912    0.8653   -2.8183 C.ar      1 <0>         0.1699
     13 C8          0.5925    0.9347   -6.4722 C.ar      1 <0>        -0.0140
     14 C9          0.9480    0.0471   -7.4877 C.ar      1 <0>        -0.0823
     15 C10         1.0748    0.5017   -8.7843 C.ar      1 <0>        -0.1008
     16 C11         0.8506    1.8349   -9.0779 C.ar      1 <0>        -0.1490
     17 C12         0.4982    2.7203   -8.0749 C.ar      1 <0>        -0.0950
     18 C13         0.3617    2.2764   -6.7756 C.ar      1 <0>        -0.0729
     19 C14         0.9913    2.3250  -10.4960 C.3       1 <0>         0.0430
     20 N6         -0.3011    2.2090  -11.1847 N.4       1 <0>        -0.3851
     21 C15        -0.6727    0.7928  -11.2893 C.3       1 <0>        -0.0066
     22 C16        -2.0554    0.6706  -11.9332 C.3       1 <0>        -0.1647
     23 C17        -2.0186    1.2950  -13.3310 C.3       1 <0>         0.1610
     24 C18        -1.5581    2.7511  -13.2171 C.3       1 <0>        -0.1670
     25 C19        -0.1938    2.7962  -12.5256 C.3       1 <0>         0.0010
     26 N7         -3.3578    1.2497  -13.9233 N.am      1 <0>        -0.5373
     27 C20        -3.7061    0.5942  -15.1019 C.ar      1 <0>         0.0794
     28 C21        -2.9890   -0.1576  -16.0202 C.ar      1 <0>        -0.1045
     29 C22        -3.6297   -0.6925  -17.1205 C.ar      1 <0>        -0.1027
     30 C23        -4.9846   -0.4809  -17.3107 C.ar      1 <0>        -0.0988
     31 C24        -5.7070    0.2669  -16.4018 C.ar      1 <0>        -0.0999
     32 C25        -5.0726    0.8073  -15.2935 C.ar      1 <0>         0.0916
     33 N8         -5.5123    1.5856  -14.2253 N.am      1 <0>        -0.6395
     34 C26        -4.4628    1.8296  -13.4180 C.2       1 <0>         0.6857
     35 O1         -4.5058    2.4787  -12.3896 O.2       1 <0>        -0.5578
     36 C27        -0.4252   -1.7227   -5.9614 C.ar      1 <0>        -0.0554
     37 C28        -1.2642   -1.2475   -6.9681 C.ar      1 <0>        -0.0964
     38 C29        -1.6188   -2.0744   -8.0145 C.ar      1 <0>        -0.1207
     39 C30        -1.1433   -3.3724   -8.0657 C.ar      1 <0>        -0.1066
     40 C31        -0.3104   -3.8493   -7.0695 C.ar      1 <0>        -0.1113
     41 C32         0.0552   -3.0299   -6.0210 C.ar      1 <0>        -0.1037
     42 H1         -1.0628   -3.5029   -1.7596 H         1 <0>         0.0978
     43 H2          0.6217   -3.2282   -2.2648 H         1 <0>         0.0999
     44 H3          0.2759   -4.1645   -0.7910 H         1 <0>         0.1147
     45 H4         -0.5400   -2.2646   -3.2958 H         1 <0>         0.1510
     46 H5          0.9797    1.5440   -2.0293 H         1 <0>         0.1836
     47 H6          1.1240   -0.9937   -7.2596 H         1 <0>         0.1427
     48 H7          1.3500   -0.1845   -9.5715 H         1 <0>         0.1348
     49 H8          0.3251    3.7600   -8.3101 H         1 <0>         0.1369
     50 H9          0.0815    2.9674   -5.9943 H         1 <0>         0.1440
     51 H10         1.3076    3.3681  -10.4903 H         1 <0>         0.1404
     52 H11         1.7357    1.7224  -11.0165 H         1 <0>         0.1380
     53 H12         0.0608    0.2696  -11.9028 H         1 <0>         0.1326
     54 H13        -0.6954    0.3491  -10.2940 H         1 <0>         0.1386
     55 H14        -2.3287   -0.3816  -12.0116 H         1 <0>         0.1166
     56 H15        -2.7898    1.1934  -11.3203 H         1 <0>         0.1070
     57 H16        -1.3218    0.7405  -13.9597 H         1 <0>         0.1149
     58 H17        -1.4759    3.1859  -14.2132 H         1 <0>         0.1183
     59 H18        -2.2821    3.3170  -12.6308 H         1 <0>         0.1077
     60 H19         0.1372    3.8314  -12.4430 H         1 <0>         0.1390
     61 H20         0.5295    2.2302  -13.1128 H         1 <0>         0.1335
     62 H21        -1.9318   -0.3242  -15.8755 H         1 <0>         0.1288
     63 H22        -3.0713   -1.2781  -17.8358 H         1 <0>         0.1387
     64 H23        -5.4786   -0.9021  -18.1738 H         1 <0>         0.1400
     65 H24        -6.7636    0.4305  -16.5539 H         1 <0>         0.1367
     66 H25        -1.6364   -0.2344   -6.9289 H         1 <0>         0.1218
     67 H26        -2.2691   -1.7075   -8.7949 H         1 <0>         0.1233
     68 H27        -1.4236   -4.0160   -8.8863 H         1 <0>         0.1272
     69 H28         0.0576   -4.8637   -7.1144 H         1 <0>         0.1312
     70 H29         0.7091   -3.4018   -5.2461 H         1 <0>         0.1271
     71 H30        -1.0069    2.7018  -10.6583 H         1 <0>         0.4264
     72 H31        -6.4207    1.8955  -14.0848 H         1 <0>         0.4398
@<TRIPOS>BOND
     1    1    2 1
     2    1   42 1
     3    1   43 1
     4    1   44 1
     5    2    6 1
     6    2    3 1
     7    3    4 2
     8    3    7 1
     9    4    5 1
    10    5    6 2
    11    7   12 ar
    12    7    8 ar
    13    8    9 ar
    14    8   45 1
    15    9   10 ar
    16    9   36 1
    17   10   11 ar
    18   10   13 1
    19   11   12 ar
    20   12   46 1
    21   13   18 ar
    22   13   14 ar
    23   14   15 ar
    24   14   47 1
    25   15   16 ar
    26   15   48 1
    27   16   17 ar
    28   16   19 1
    29   17   18 ar
    30   17   49 1
    31   18   50 1
    32   19   20 1
    33   19   51 1
    34   19   52 1
    35   20   25 1
    36   20   21 1
    37   20   71 1
    38   21   22 1
    39   21   53 1
    40   21   54 1
    41   22   23 1
    42   22   55 1
    43   22   56 1
    44   23   24 1
    45   23   26 1
    46   23   57 1
    47   24   25 1
    48   24   58 1
    49   24   59 1
    50   25   60 1
    51   25   61 1
    52   26   34 am
    53   26   27 1
    54   27   32 ar
    55   27   28 ar
    56   28   29 ar
    57   28   62 1
    58   29   30 ar
    59   29   63 1
    60   30   31 ar
    61   30   64 1
    62   31   32 ar
    63   31   65 1
    64   32   33 1
    65   33   34 am
    66   33   72 1
    67   34   35 2
    68   36   41 ar
    69   36   37 ar
    70   37   38 ar
    71   37   66 1
    72   38   39 ar
    73   38   67 1
    74   39   40 ar
    75   39   68 1
    76   40   41 ar
    77   40   69 1
    78   41   70 1
@<TRIPOS>MOLECULE
CHEMBL1081105
   51    54     0     0     0
SMALL
USER_CHARGES

@<TRIPOS>ATOM
      1 C1         -0.0167    1.3781    0.0096 C.ar      1 <0>        -0.1424
      2 C2          1.1709    2.0855    0.0021 C.ar      1 <0>        -0.0583
      3 C3          2.3773    1.4107   -0.0130 C.ar      1 <0>        -0.1641
      4 C4          2.3960    0.0285   -0.0201 C.ar      1 <0>        -0.0559
      5 C5          1.2085   -0.6789   -0.0117 C.ar      1 <0>        -0.1034
      6 C6          0.0021   -0.0041    0.0020 C.ar      1 <0>        -0.0979
      7 C7         -1.2926   -0.7753    0.0107 C.3       1 <0>        -0.1034
      8 C8         -1.7450   -1.0285   -1.4288 C.3       1 <0>         0.0364
      9 H1         -0.9463   -1.5264   -1.9784 H         1 <0>         0.1516
     10 C9         -2.9907   -1.9168   -1.4231 C.3       1 <0>        -0.1460
     11 C10        -3.3701   -2.2725   -2.8620 C.3       1 <0>        -0.0632
     12 C11        -4.5971   -3.1475   -2.8563 C.2       1 <0>         0.0553
     13 C12        -5.8704   -2.7192   -2.9111 C.2       1 <0>        -0.2568
     14 C13        -6.7165   -3.8540   -2.8831 C.2       1 <0>         0.1495
     15 N1         -5.9554   -4.9194   -2.8136 N.2       1 <0>        -0.2943
     16 O1         -4.6066   -4.4883   -2.8016 O.3       1 <0>        -0.0661
     17 C14        -8.2000   -3.8400   -2.9249 C.ar      1 <0>        -0.0319
     18 C15        -8.8822   -2.6155   -3.0053 C.ar      1 <0>        -0.0989
     19 C16       -10.2398   -2.5726   -3.0456 C.ar      1 <0>        -0.0770
     20 C17       -10.9782   -3.7671   -3.0066 C.ar      1 <0>        -0.1013
     21 C18       -12.3819   -3.7726   -3.0462 C.ar      1 <0>         0.1470
     22 N2        -13.0337   -4.9111   -3.0079 N.ar      1 <0>        -0.4769
     23 C19       -12.4235   -6.0859   -2.9320 C.ar      1 <0>         0.0853
     24 C20       -11.0663   -6.1891   -2.8879 C.ar      1 <0>        -0.1490
     25 C21       -10.2977   -5.0104   -2.9253 C.ar      1 <0>        -0.0290
     26 C22        -8.8976   -5.0336   -2.8901 C.ar      1 <0>        -0.0592
     27 N3         -2.0599    0.2523   -2.0756 N.4       1 <0>        -0.6419
     28 C23         3.6720    2.1819   -0.0222 C.3       1 <0>         0.5037
     29 F1          4.0857    2.4144    1.2938 F         1 <0>        -0.1692
     30 F2          4.6506    1.4423   -0.6949 F         1 <0>        -0.1715
     31 F3          3.4816    3.4050   -0.6742 F         1 <0>        -0.1730
     32 H2         -0.9591    1.9053    0.0259 H         1 <0>         0.1364
     33 H3          1.1563    3.1654    0.0076 H         1 <0>         0.1465
     34 H4          3.3385   -0.4987   -0.0326 H         1 <0>         0.1474
     35 H5          1.2231   -1.7588   -0.0179 H         1 <0>         0.1447
     36 H6         -1.1443   -1.7285    0.5180 H         1 <0>         0.1287
     37 H7         -2.0551   -0.1993    0.5352 H         1 <0>         0.1062
     38 H8         -2.7831   -2.8302   -0.8657 H         1 <0>         0.1249
     39 H9         -3.8156   -1.3828   -0.9513 H         1 <0>         0.1015
     40 H10        -3.5778   -1.3591   -3.4194 H         1 <0>         0.0946
     41 H11        -2.5452   -2.8065   -3.3338 H         1 <0>         0.1107
     42 H12        -6.1917   -1.6896   -2.9663 H         1 <0>         0.1633
     43 H13        -8.3197   -1.6940   -3.0353 H         1 <0>         0.1316
     44 H14       -10.7499   -1.6227   -3.1071 H         1 <0>         0.1440
     45 H15       -12.9246   -2.8409   -3.1078 H         1 <0>         0.1693
     46 H16       -13.0195   -6.9861   -2.9040 H         1 <0>         0.1605
     47 H17       -10.5892   -7.1560   -2.8254 H         1 <0>         0.1440
     48 H18        -8.3687   -5.9734   -2.8324 H         1 <0>         0.1415
     49 H19        -1.2384    0.8381   -2.0794 H         1 <0>         0.4360
     50 H20        -2.3583    0.0853   -3.0249 H         1 <0>         0.4354
     51 H21        -2.7994    0.7132   -1.5668 H         1 <0>         0.4345
@<TRIPOS>BOND
     1    1    6 ar
     2    1    2 ar
     3    1   32 1
     4    2    3 ar
     5    2   33 1
     6    3    4 ar
     7    3   28 1
     8    4    5 ar
     9    4   34 1
    10    5    6 ar
    11    5   35 1
    12    6    7 1
    13    7    8 1
    14    7   36 1
    15    7   37 1
    16    8    9 1
    17    8   10 1
    18    8   27 1
    19   10   11 1
    20   10   38 1
    21   10   39 1
    22   11   12 1
    23   11   40 1
    24   11   41 1
    25   12   16 1
    26   12   13 2
    27   13   14 1
    28   13   42 1
    29   14   15 2
    30   14   17 1
    31   15   16 1
    32   17   26 ar
    33   17   18 ar
    34   18   19 ar
    35   18   43 1
    36   19   20 ar
    37   19   44 1
    38   20   25 ar
    39   20   21 ar
    40   21   22 ar
    41   21   45 1
    42   22   23 ar
    43   23   24 ar
    44   23   46 1
    45   24   25 ar
    46   24   47 1
    47   25   26 ar
    48   26   48 1
    49   27   49 1
    50   27   50 1
    51   27   51 1
    52   28   29 1
    53   28   30 1
    54   28   31 1
@<TRIPOS>MOLECULE
CHEMBL210544
   63    68     0     0     0
SMALL
USER_CHARGES

@<TRIPOS>ATOM
      1 C1         -0.0167    1.3791    0.0096 C.ar      1 <0>        -0.1046
      2 C2          1.1686    2.0922    0.0021 C.ar      1 <0>        -0.1244
      3 C3          2.3774    1.4264   -0.0134 C.ar      1 <0>        -0.0783
      4 C4          2.4024    0.0329   -0.0211 C.ar      1 <0>        -0.0586
      5 C5          1.2050   -0.6804   -0.0130 C.ar      1 <0>        -0.1017
      6 C6          0.0021   -0.0041    0.0020 C.ar      1 <0>        -0.1228
      7 C7          3.6983   -0.6883   -0.0382 C.ar      1 <0>         0.1614
      8 C8          3.7029   -2.0713   -0.0514 C.ar      1 <0>        -0.1489
      9 C9          4.9400   -2.7381   -0.0681 C.ar      1 <0>        -0.0156
     10 C10         5.0290   -4.1366   -0.0826 C.ar      1 <0>        -0.0882
     11 C11         6.2756   -4.7354   -0.0991 C.ar      1 <0>        -0.0344
     12 C12         7.4431   -3.9549   -0.1013 C.ar      1 <0>        -0.1154
     13 C13         7.3774   -2.5976   -0.0874 C.ar      1 <0>        -0.0720
     14 C14         6.1271   -1.9575   -0.0705 C.ar      1 <0>        -0.1120
     15 C15         6.0153   -0.5574   -0.0563 C.ar      1 <0>         0.1566
     16 N1          4.8342    0.0110   -0.0462 N.ar      1 <0>        -0.4745
     17 C16         6.3804   -6.2152   -0.1140 C.ar      1 <0>        -0.0481
     18 C17         7.6311   -6.8376   -0.1250 C.ar      1 <0>        -0.0914
     19 C18         7.6748   -8.2257   -0.1388 C.ar      1 <0>         0.0685
     20 C19         6.4845   -8.9403   -0.1413 C.ar      1 <0>         0.0250
     21 N2          5.3211   -8.3199   -0.1308 N.ar      1 <0>        -0.4383
     22 C20         5.2329   -7.0057   -0.1116 C.ar      1 <0>         0.0895
     23 O1          8.8680   -8.8764   -0.1503 O.3       1 <0>        -0.3221
     24 C21         8.8279  -10.3048   -0.1642 C.3       1 <0>         0.0259
     25 C22        10.2555  -10.8550   -0.1756 C.3       1 <0>         0.0435
     26 H1         10.8030  -10.4274   -1.0156 H         1 <0>         0.1531
     27 C23        10.2140  -12.3780   -0.3162 C.3       1 <0>        -0.0555
     28 C24        11.6181  -12.9085   -0.4509 C.2       1 <0>        -0.2379
     29 C25        12.2659  -13.1713   -1.5968 C.2       1 <0>         0.1042
     30 N3         13.5226  -13.6396   -1.3256 N.pl3     1 <0>        -0.5844
     31 H2         14.1775  -13.8971   -1.9933 H         1 <0>         0.4266
     32 C26        13.7193  -13.6909    0.0362 C.ar      1 <0>         0.0987
     33 C27        12.5371  -13.2292    0.6439 C.ar      1 <0>        -0.1171
     34 C28        12.4484  -13.1650    2.0355 C.ar      1 <0>        -0.1143
     35 C29        13.5133  -13.5482    2.8015 C.ar      1 <0>        -0.1189
     36 C30        14.6830  -14.0005    2.2070 C.ar      1 <0>        -0.0931
     37 C31        14.7888  -14.0807    0.8354 C.ar      1 <0>        -0.1108
     38 N4         10.9282  -10.4974    1.0804 N.4       1 <0>        -0.6363
     39 H3         -0.9603    1.9042    0.0260 H         1 <0>         0.1264
     40 H4          1.1480    3.1720    0.0081 H         1 <0>         0.1280
     41 H5          3.3022    1.9842   -0.0199 H         1 <0>         0.1355
     42 H6          1.2184   -1.7603   -0.0192 H         1 <0>         0.1251
     43 H7         -0.9264   -0.5557    0.0082 H         1 <0>         0.1279
     44 H8          2.7766   -2.6265   -0.0485 H         1 <0>         0.1445
     45 H9          4.1335   -4.7403   -0.0806 H         1 <0>         0.1387
     46 H10         8.4076   -4.4407   -0.1138 H         1 <0>         0.1288
     47 H11         8.2849   -2.0121   -0.0890 H         1 <0>         0.1400
     48 H12         6.9060    0.0533   -0.0576 H         1 <0>         0.1696
     49 H13         8.5402   -6.2546   -0.1230 H         1 <0>         0.1499
     50 H14         6.5119  -10.0199   -0.1525 H         1 <0>         0.1593
     51 H15         4.2606   -6.5358   -0.0983 H         1 <0>         0.1674
     52 H16         8.3078  -10.6623    0.7245 H         1 <0>         0.0923
     53 H17         8.3003  -10.6448   -1.0554 H         1 <0>         0.1142
     54 H18         9.7448  -12.8117    0.5669 H         1 <0>         0.0999
     55 H19         9.6380  -12.6455   -1.2021 H         1 <0>         0.1218
     56 H20        11.8557  -13.0338   -2.5864 H         1 <0>         0.1791
     57 H21        11.5417  -12.8134    2.5051 H         1 <0>         0.1148
     58 H22        13.4442  -13.4984    3.8781 H         1 <0>         0.1312
     59 H23        15.5163  -14.2992    2.8257 H         1 <0>         0.1354
     60 H24        15.7036  -14.4328    0.3822 H         1 <0>         0.1295
     61 H25        10.4214  -10.8932    1.8579 H         1 <0>         0.4300
     62 H26        11.8697  -10.8602    1.0728 H         1 <0>         0.4383
     63 H27        10.9556   -9.4930    1.1731 H         1 <0>         0.4392
@<TRIPOS>BOND
     1    1    6 ar
     2    1    2 ar
     3    1   39 1
     4    2    3 ar
     5    2   40 1
     6    3    4 ar
     7    3   41 1
     8    4    5 ar
     9    4    7 1
    10    5    6 ar
    11    5   42 1
    12    6   43 1
    13    7   16 ar
    14    7    8 ar
    15    8    9 ar
    16    8   44 1
    17    9   14 ar
    18    9   10 ar
    19   10   11 ar
    20   10   45 1
    21   11   12 ar
    22   11   17 1
    23   12   13 ar
    24   12   46 1
    25   13   14 ar
    26   13   47 1
    27   14   15 ar
    28   15   16 ar
    29   15   48 1
    30   17   22 ar
    31   17   18 ar
    32   18   19 ar
    33   18   49 1
    34   19   20 ar
    35   19   23 1
    36   20   21 ar
    37   20   50 1
    38   21   22 ar
    39   22   51 1
    40   23   24 1
    41   24   25 1
    42   24   52 1
    43   24   53 1
    44   25   26 1
    45   25   27 1
    46   25   38 1
    47   27   28 1
    48   27   54 1
    49   27   55 1
    50   28   33 1
    51   28   29 2
    52   29   30 1
    53   29   56 1
    54   30   31 1
    55   30   32 1
    56   32   37 ar
    57   32   33 ar
    58   33   34 ar
    59   34   35 ar
    60   34   57 1
    61   35   36 ar
    62   35   58 1
    63   36   37 ar
    64   36   59 1
    65   37   60 1
    66   38   61 1
    67   38   62 1
    68   38   63 1
@<TRIPOS>MOLECULE
CHEMBL494060
   72    75     0     0     0
SMALL
USER_CHARGES

@<TRIPOS>ATOM
      1 C1         -0.0187    1.5258    0.0104 C.3       1 <0>        -0.1652
      2 C2          0.0021   -0.0041    0.0020 C.3       1 <0>         0.0987
      3 N1          0.6878   -0.4765   -1.2033 N.pl3     1 <0>        -0.4450
      4 C3          0.1084   -0.7452   -2.4220 C.ar      1 <0>         0.0729
      5 C4         -1.1885   -0.6848   -2.9333 C.ar      1 <0>         0.0984
      6 C5         -1.4068   -1.0423   -4.2530 C.ar      1 <0>         0.0255
      7 N2         -0.4156   -1.4373   -5.0310 N.ar      1 <0>        -0.4279
      8 C6          0.8360   -1.5144   -4.6003 C.ar      1 <0>         0.2931
      9 C7          1.1491   -1.1685   -3.2692 C.ar      1 <0>         0.0633
     10 N3          2.2847   -1.1401   -2.5504 N.2       1 <0>        -0.4382
     11 C8          2.0279   -0.7287   -1.3319 C.2       1 <0>         0.3431
     12 C9          3.0324   -0.5655   -0.2583 C.2       1 <0>         0.1305
     13 C10         4.4724   -0.8253   -0.3802 C.2       1 <0>         0.3642
     14 N4          5.0335   -0.5707    0.7697 N.2       1 <0>        -0.3423
     15 O1          4.0212   -0.1472    1.6654 O.3       1 <0>         0.0502
     16 N5          2.7917   -0.1594    0.9619 N.2       1 <0>        -0.2475
     17 N6          5.1251   -1.2670   -1.5235 N.pl3     1 <0>        -0.8007
     18 C11         1.8718   -1.9500   -5.4881 C.1       1 <0>        -0.1221
     19 C12         2.7209   -2.3071   -6.2159 C.1       1 <0>        -0.1235
     20 C13         3.7856   -2.7549   -7.1284 C.3       1 <0>         0.2403
     21 C14         5.1250   -2.7540   -6.3888 C.3       1 <0>        -0.1760
     22 C15         3.4749   -4.1704   -7.6190 C.3       1 <0>        -0.1392
     23 O2          3.8585   -1.8683   -8.2468 O.3       1 <0>        -0.5437
     24 O3         -2.2219   -0.2814   -2.1476 O.3       1 <0>        -0.3074
     25 C16        -3.5183   -0.2475   -2.7478 C.3       1 <0>         0.0574
     26 C17        -4.5450    0.2275   -1.7176 C.3       1 <0>        -0.1516
     27 C18        -5.9330    0.2637   -2.3602 C.3       1 <0>        -0.0056
     28 N7         -6.9188    0.7198   -1.3711 N.4       1 <0>        -0.5087
     29 C19        -8.2515    0.7546   -1.9881 C.3       1 <0>        -0.0076
     30 C20        -9.2781    1.2296   -0.9579 C.3       1 <0>        -0.0937
     31 C21       -10.6453    1.2654   -1.5908 C.ar      1 <0>        -0.1535
     32 C22       -11.0832    2.4143   -2.2233 C.ar      1 <0>        -0.0669
     33 C23       -12.3362    2.4497   -2.8039 C.ar      1 <0>        -0.1495
     34 C24       -13.1552    1.3311   -2.7523 C.ar      1 <0>         0.1483
     35 C25       -12.7133    0.1794   -2.1175 C.ar      1 <0>        -0.2071
     36 C26       -11.4574    0.1474   -1.5430 C.ar      1 <0>        -0.0656
     37 O4        -14.3885    1.3636   -3.3223 O.3       1 <0>        -0.3118
     38 C27       -15.1771    0.1754   -3.2307 C.3       1 <0>         0.0233
     39 H1          1.0039    1.9031    0.0027 H         1 <0>         0.0654
     40 H2         -0.5459    1.8868   -0.8726 H         1 <0>         0.0629
     41 H3         -0.5289    1.8773    0.9072 H         1 <0>         0.0860
     42 H4          0.5293   -0.3651    0.8851 H         1 <0>         0.1097
     43 H5         -1.0205   -0.3814    0.0098 H         1 <0>         0.1029
     44 H6         -2.4085   -0.9976   -4.6543 H         1 <0>         0.1724
     45 H7          4.6220   -1.4309   -2.3365 H         1 <0>         0.4301
     46 H8          6.0842   -1.4116   -1.5092 H         1 <0>         0.4213
     47 H9          5.0694   -3.4303   -5.5357 H         1 <0>         0.0726
     48 H10         5.9134   -3.0856   -7.0645 H         1 <0>         0.0803
     49 H11         5.3464   -1.7456   -6.0392 H         1 <0>         0.0650
     50 H12         2.5207   -4.1710   -8.1459 H         1 <0>         0.0690
     51 H13         4.2633   -4.5020   -8.2948 H         1 <0>         0.0784
     52 H14         3.4193   -4.8466   -6.7660 H         1 <0>         0.0766
     53 H15         4.0529   -0.9513   -8.0097 H         1 <0>         0.3824
     54 H16        -3.5089    0.4388   -3.5945 H         1 <0>         0.0805
     55 H17        -3.7852   -1.2465   -3.0928 H         1 <0>         0.0803
     56 H18        -4.5544   -0.4589   -0.8709 H         1 <0>         0.1007
     57 H19        -4.2781    1.2264   -1.3726 H         1 <0>         0.1011
     58 H20        -5.9236    0.9501   -3.2069 H         1 <0>         0.1380
     59 H21        -6.1999   -0.7352   -2.7052 H         1 <0>         0.1377
     60 H22        -6.9275    0.0844   -0.5873 H         1 <0>         0.4299
     61 H23        -8.2421    1.4410   -2.8348 H         1 <0>         0.1349
     62 H24        -8.5184   -0.2443   -2.3331 H         1 <0>         0.1340
     63 H25        -9.2876    0.5433   -0.1112 H         1 <0>         0.0942
     64 H26        -9.0112    2.2286   -0.6129 H         1 <0>         0.0951
     65 H27       -10.4453    3.2848   -2.2632 H         1 <0>         0.1315
     66 H28       -12.6781    3.3476   -3.2972 H         1 <0>         0.1382
     67 H29       -13.3491   -0.6927   -2.0760 H         1 <0>         0.1352
     68 H30       -11.1112   -0.7504   -1.0525 H         1 <0>         0.1269
     69 H31       -15.3455   -0.0689   -2.1819 H         1 <0>         0.0602
     70 H32       -16.1353    0.3363   -3.7247 H         1 <0>         0.1084
     71 H33       -14.6519   -0.6474   -3.7157 H         1 <0>         0.0594
     72 H34        -6.6717    1.6445   -1.0517 H         1 <0>         0.4301
@<TRIPOS>BOND
     1    1    2 1
     2    1   39 1
     3    1   40 1
     4    1   41 1
     5    2    3 1
     6    2   42 1
     7    2   43 1
     8    3   11 1
     9    3    4 1
    10    4    9 ar
    11    4    5 ar
    12    5    6 ar
    13    5   24 1
    14    6    7 ar
    15    6   44 1
    16    7    8 ar
    17    8    9 ar
    18    8   18 1
    19    9   10 1
    20   10   11 2
    21   11   12 1
    22   12   16 2
    23   12   13 1
    24   13   14 2
    25   13   17 1
    26   14   15 1
    27   15   16 1
    28   17   45 1
    29   17   46 1
    30   18   19 3
    31   19   20 1
    32   20   21 1
    33   20   22 1
    34   20   23 1
    35   21   47 1
    36   21   48 1
    37   21   49 1
    38   22   50 1
    39   22   51 1
    40   22   52 1
    41   23   53 1
    42   24   25 1
    43   25   26 1
    44   25   54 1
    45   25   55 1
    46   26   27 1
    47   26   56 1
    48   26   57 1
    49   27   28 1
    50   27   58 1
    51   27   59 1
    52   28   29 1
    53   28   60 1
    54   28   72 1
    55   29   30 1
    56   29   61 1
    57   29   62 1
    58   30   31 1
    59   30   63 1
    60   30   64 1
    61   31   36 ar
    62   31   32 ar
    63   32   33 ar
    64   32   65 1
    65   33   34 ar
    66   33   66 1
    67   34   35 ar
    68   34   37 1
    69   35   36 ar
    70   35   67 1
    71   36   68 1
    72   37   38 1
    73   38   69 1
    74   38   70 1
    75   38   71 1
@<TRIPOS>MOLECULE
CHEMBL378211
   65    70     0     0     0
SMALL
USER_CHARGES

@<TRIPOS>ATOM
      1 C1         -0.0167    1.3796    0.0096 C.ar      1 <0>        -0.1033
      2 C2          1.1681    2.0946    0.0022 C.ar      1 <0>        -0.1190
      3 C3          2.3774    1.4317   -0.0130 C.ar      1 <0>        -0.0901
      4 C4          2.4043    0.0345   -0.0208 C.ar      1 <0>         0.0001
      5 C5          1.2037   -0.6807   -0.0131 C.ar      1 <0>        -0.0895
      6 C6          0.0021   -0.0041    0.0020 C.ar      1 <0>        -0.1188
      7 C7          3.6560   -0.6610   -0.0369 C.1       1 <0>        -0.0670
      8 C8          4.6822   -1.2311   -0.0502 C.1       1 <0>        -0.1273
      9 C9          5.9339   -1.9265   -0.0664 C.ar      1 <0>         0.2232
     10 C10         7.1158   -1.1993   -0.0685 C.ar      1 <0>        -0.1241
     11 C11         8.3333   -1.8993   -0.0845 C.ar      1 <0>        -0.0194
     12 C12         9.5691   -1.2376   -0.0872 C.ar      1 <0>        -0.0847
     13 C13        10.7351   -1.9815   -0.1028 C.ar      1 <0>        -0.0342
     14 C14        10.6869   -3.3849   -0.1163 C.ar      1 <0>        -0.1105
     15 C15         9.4984   -4.0446   -0.1140 C.ar      1 <0>        -0.0733
     16 C16         8.2955   -3.3200   -0.0978 C.ar      1 <0>        -0.1050
     17 C17         7.0468   -3.9645   -0.0943 C.ar      1 <0>         0.1579
     18 N1          5.9405   -3.2634   -0.0736 N.ar      1 <0>        -0.4672
     19 C18        12.0480   -1.2908   -0.1057 C.ar      1 <0>        -0.0491
     20 C19        13.2361   -2.0256   -0.1272 C.ar      1 <0>        -0.0908
     21 C20        14.4389   -1.3313   -0.1290 C.ar      1 <0>         0.0684
     22 C21        14.4191    0.0567   -0.1095 C.ar      1 <0>         0.0259
     23 N2         13.2789    0.7185   -0.0895 N.ar      1 <0>        -0.4383
     24 C22        12.1152    0.1010   -0.0929 C.ar      1 <0>         0.0900
     25 O1         15.6207   -2.0024   -0.1491 O.3       1 <0>        -0.3220
     26 C23        16.8135   -1.2156   -0.1495 C.3       1 <0>         0.0259
     27 C24        18.0334   -2.1388   -0.1734 C.3       1 <0>         0.0435
     28 H1         17.9752   -2.8394    0.6596 H         1 <0>         0.1531
     29 C25        19.3085   -1.3025   -0.0482 C.3       1 <0>        -0.0555
     30 C26        20.5016   -2.2176    0.0518 C.2       1 <0>        -0.2380
     31 C27        21.0890   -2.6432    1.1813 C.2       1 <0>         0.1042
     32 N3         22.1436   -3.4610    0.8792 N.pl3     1 <0>        -0.5844
     33 H2         22.7207   -3.8897    1.5305 H         1 <0>         0.4266
     34 C28        22.2637   -3.5848   -0.4868 C.ar      1 <0>         0.0988
     35 C29        21.2365   -2.8165   -1.0650 C.ar      1 <0>        -0.1171
     36 C30        21.1075   -2.7583   -2.4537 C.ar      1 <0>        -0.1143
     37 C31        21.9789   -3.4520   -3.2456 C.ar      1 <0>        -0.1189
     38 C32        22.9913   -4.2147   -2.6801 C.ar      1 <0>        -0.0931
     39 C33        23.1424   -4.2787   -1.3120 C.ar      1 <0>        -0.1108
     40 N4         18.0588   -2.8839   -1.4391 N.4       1 <0>        -0.6363
     41 H3         -0.9607    1.9041    0.0260 H         1 <0>         0.1290
     42 H4          1.1457    3.1744    0.0078 H         1 <0>         0.1309
     43 H5          3.3013    1.9910   -0.0191 H         1 <0>         0.1279
     44 H6          1.2168   -1.7606   -0.0191 H         1 <0>         0.1282
     45 H7         -0.9266   -0.5554    0.0083 H         1 <0>         0.1311
     46 H8          7.0998   -0.1195   -0.0585 H         1 <0>         0.1476
     47 H9          9.6103   -0.1585   -0.0775 H         1 <0>         0.1407
     48 H10        11.6080   -3.9486   -0.1292 H         1 <0>         0.1303
     49 H11         9.4792   -5.1243   -0.1249 H         1 <0>         0.1420
     50 H12         6.9990   -5.0434   -0.1045 H         1 <0>         0.1735
     51 H13        13.2195   -3.1054   -0.1417 H         1 <0>         0.1502
     52 H14        15.3511    0.6023   -0.1104 H         1 <0>         0.1595
     53 H15        11.2034    0.6797   -0.0807 H         1 <0>         0.1677
     54 H16        16.8257   -0.5746   -1.0311 H         1 <0>         0.0924
     55 H17        16.8423   -0.5987    0.7487 H         1 <0>         0.1143
     56 H18        19.4123   -0.6647   -0.9260 H         1 <0>         0.0999
     57 H19        19.2500   -0.6826    0.8465 H         1 <0>         0.1218
     58 H20        20.7758   -2.3789    2.1805 H         1 <0>         0.1791
     59 H21        20.3217   -2.1675   -2.9007 H         1 <0>         0.1148
     60 H22        21.8787   -3.4068   -4.3200 H         1 <0>         0.1312
     61 H23        23.6717   -4.7579   -3.3191 H         1 <0>         0.1354
     62 H24        23.9327   -4.8759   -0.8815 H         1 <0>         0.1295
     63 H25        18.8633   -3.4928   -1.4549 H         1 <0>         0.4383
     64 H26        17.2180   -3.4355   -1.5217 H         1 <0>         0.4391
     65 H27        18.1128   -2.2354   -2.2102 H         1 <0>         0.4300
@<TRIPOS>BOND
     1    1    6 ar
     2    1    2 ar
     3    1   41 1
     4    2    3 ar
     5    2   42 1
     6    3    4 ar
     7    3   43 1
     8    4    5 ar
     9    4    7 1
    10    5    6 ar
    11    5   44 1
    12    6   45 1
    13    7    8 3
    14    8    9 1
    15    9   18 ar
    16    9   10 ar
    17   10   11 ar
    18   10   46 1
    19   11   16 ar
    20   11   12 ar
    21   12   13 ar
    22   12   47 1
    23   13   14 ar
    24   13   19 1
    25   14   15 ar
    26   14   48 1
    27   15   16 ar
    28   15   49 1
    29   16   17 ar
    30   17   18 ar
    31   17   50 1
    32   19   24 ar
    33   19   20 ar
    34   20   21 ar
    35   20   51 1
    36   21   22 ar
    37   21   25 1
    38   22   23 ar
    39   22   52 1
    40   23   24 ar
    41   24   53 1
    42   25   26 1
    43   26   27 1
    44   26   54 1
    45   26   55 1
    46   27   28 1
    47   27   29 1
    48   27   40 1
    49   29   30 1
    50   29   56 1
    51   29   57 1
    52   30   35 1
    53   30   31 2
    54   31   32 1
    55   31   58 1
    56   32   33 1
    57   32   34 1
    58   34   39 ar
    59   34   35 ar
    60   35   36 ar
    61   36   37 ar
    62   36   59 1
    63   37   38 ar
    64   37   60 1
    65   38   39 ar
    66   38   61 1
    67   39   62 1
    68   40   63 1
    69   40   64 1
    70   40   65 1
@<TRIPOS>MOLECULE
CHEMBL512480
   45    48     0     0     0
SMALL
USER_CHARGES

@<TRIPOS>ATOM
      1 C1         -0.0167    1.3781    0.0096 C.ar      1 <0>        -0.0914
      2 C2          1.1709    2.0855    0.0021 C.ar      1 <0>        -0.1144
      3 C3          2.3773    1.4107   -0.0130 C.ar      1 <0>        -0.1052
      4 C4          2.3960    0.0285   -0.0201 C.ar      1 <0>        -0.1342
      5 C5          1.2084   -0.6789   -0.0117 C.ar      1 <0>        -0.0846
      6 C6          0.0021   -0.0041    0.0020 C.ar      1 <0>        -0.1122
      7 C7          3.7112   -0.7071   -0.0376 C.3       1 <0>        -0.0772
      8 C8          3.7911   -1.5793   -1.2921 C.3       1 <0>        -0.0022
      9 N1          3.8097   -0.7215   -2.4845 N.4       1 <0>        -0.6328
     10 C9          3.8156   -1.5785    1.1875 C.2       1 <0>         0.5061
     11 O1          2.9111   -1.6000    1.9954 O.2       1 <0>        -0.4632
     12 N2          4.9141   -2.3339    1.3855 N.am      1 <0>        -0.6168
     13 C10         5.0107   -3.1397    2.5186 C.2       1 <0>         0.0286
     14 C11         6.0305   -3.9655    2.9015 C.2       1 <0>        -0.1801
     15 C12         5.9090   -4.6747    4.0731 C.2       1 <0>        -0.1215
     16 C13         4.7668   -4.5289    4.8185 C.2       1 <0>        -0.1392
     17 S1          3.8379   -3.3534    3.8474 S.3       1 <0>         0.1930
     18 C14         4.4031   -5.1714    6.0929 C.ar      1 <0>         0.0724
     19 C15         4.5126   -6.5562    6.2619 C.ar      1 <0>        -0.1756
     20 C16         4.1610   -7.1169    7.4742 C.ar      1 <0>         0.1424
     21 N3          3.7247   -6.3826    8.4778 N.ar      1 <0>        -0.4918
     22 C17         3.5975   -5.0641    8.3831 C.ar      1 <0>         0.2907
     23 C18         3.9384   -4.4112    7.1861 C.ar      1 <0>        -0.1382
     24 C19         3.6951   -2.9881    7.4101 C.2       1 <0>        -0.2003
     25 C20         3.2471   -2.8629    8.6707 C.2       1 <0>         0.0736
     26 N4          3.1757   -4.0959    9.2626 N.pl3     1 <0>        -0.5799
     27 H1          2.8809   -4.2604   10.1720 H         1 <0>         0.4242
     28 H2         -0.9591    1.9053    0.0259 H         1 <0>         0.1329
     29 H3          1.1563    3.1654    0.0076 H         1 <0>         0.1332
     30 H4          3.3051    1.9634   -0.0196 H         1 <0>         0.1280
     31 H5          1.2231   -1.7588   -0.0176 H         1 <0>         0.1243
     32 H6         -0.9258   -0.5567    0.0082 H         1 <0>         0.1326
     33 H7          4.5299    0.0124   -0.0426 H         1 <0>         0.1342
     34 H8          4.7013   -2.1781   -1.2610 H         1 <0>         0.1432
     35 H9          2.9238   -2.2384   -1.3322 H         1 <0>         0.1459
     36 H10         4.6125   -0.1114   -2.4473 H         1 <0>         0.4371
     37 H11         3.8624   -1.2967   -3.3118 H         1 <0>         0.4438
     38 H12         5.6375   -2.3166    0.7395 H         1 <0>         0.4160
     39 H13         6.9177   -4.0598    2.2930 H         1 <0>         0.1365
     40 H14         6.6985   -5.3350    4.4005 H         1 <0>         0.1415
     41 H15         4.8673   -7.1791    5.4541 H         1 <0>         0.1424
     42 H16         4.2457   -8.1859    7.6031 H         1 <0>         0.1680
     43 H17         3.8467   -2.1897    6.6989 H         1 <0>         0.1487
     44 H18         2.9759   -1.9305    9.1435 H         1 <0>         0.1826
     45 H19         2.9671   -0.1672   -2.5133 H         1 <0>         0.4391
@<TRIPOS>BOND
     1    1    6 ar
     2    1    2 ar
     3    1   28 1
     4    2    3 ar
     5    2   29 1
     6    3    4 ar
     7    3   30 1
     8    4    5 ar
     9    4    7 1
    10    5    6 ar
    11    5   31 1
    12    6   32 1
    13    7    8 1
    14    7   10 1
    15    7   33 1
    16    8    9 1
    17    8   34 1
    18    8   35 1
    19    9   36 1
    20    9   37 1
    21    9   45 1
    22   10   11 2
    23   10   12 am
    24   12   13 1
    25   12   38 1
    26   13   17 1
    27   13   14 2
    28   14   15 1
    29   14   39 1
    30   15   16 2
    31   15   40 1
    32   16   17 1
    33   16   18 1
    34   18   23 ar
    35   18   19 ar
    36   19   20 ar
    37   19   41 1
    38   20   21 ar
    39   20   42 1
    40   21   22 ar
    41   22   26 1
    42   22   23 ar
    43   23   24 1
    44   24   25 2
    45   24   43 1
    46   25   26 1
    47   25   44 1
    48   26   27 1
@<TRIPOS>MOLECULE
CHEMBL512480
   45    48     0     0     0
SMALL
USER_CHARGES

@<TRIPOS>ATOM
      1 C1          5.2675    3.2903   -0.3575 C.ar      1 <0>        -0.0930
      2 C2          5.8624    2.4250    0.5414 C.ar      1 <0>        -0.1136
      3 C3          5.3704    1.1424    0.6953 C.ar      1 <0>        -0.0978
      4 C4          4.2831    0.7253   -0.0495 C.ar      1 <0>        -0.1160
      5 C5          3.6876    1.5909   -0.9478 C.ar      1 <0>        -0.1009
      6 C6          4.1805    2.8730   -1.1026 C.ar      1 <0>        -0.1119
      7 C7          3.7473   -0.6733    0.1176 C.3       1 <0>        -0.0752
      8 C8          2.2894   -0.6094    0.5775 C.3       1 <0>         0.0072
      9 N1          1.8055   -1.9671    0.8612 N.4       1 <0>        -0.6396
     10 C9          3.8272   -1.4024   -1.1989 C.2       1 <0>         0.4898
     11 O1          2.9347   -1.2858   -2.0120 O.2       1 <0>        -0.4965
     12 N2          4.8904   -2.1841   -1.4728 N.am      1 <0>        -0.6041
     13 C10         4.9168   -2.9394   -2.6439 C.2       1 <0>         0.0218
     14 C11         5.8872   -3.7887   -3.0972 C.2       1 <0>        -0.1732
     15 C12         5.6988   -4.4365   -4.2953 C.2       1 <0>        -0.1214
     16 C13         4.5416   -4.2077   -4.9954 C.2       1 <0>        -0.1330
     17 S1          3.6884   -3.0528   -3.9344 S.3       1 <0>         0.1850
     18 C14         4.1118   -4.7728   -6.2857 C.ar      1 <0>         0.0699
     19 C15         4.9605   -4.7634   -7.3983 C.ar      1 <0>        -0.1730
     20 C16         4.5167   -5.3046   -8.5890 C.ar      1 <0>         0.1441
     21 N3          3.3141   -5.8306   -8.7065 N.ar      1 <0>        -0.4908
     22 C17         2.4604   -5.8712   -7.6901 C.ar      1 <0>         0.2906
     23 C18         2.8330   -5.3472   -6.4404 C.ar      1 <0>        -0.1380
     24 C19         1.6913   -5.5512   -5.5518 C.2       1 <0>        -0.2025
     25 C20         0.7383   -6.1624   -6.2756 C.2       1 <0>         0.0743
     26 N4          1.1801   -6.3532   -7.5579 N.pl3     1 <0>        -0.5796
     27 H1          0.6688   -6.7759   -8.2655 H         1 <0>         0.4247
     28 H2          5.6491    4.2939   -0.4745 H         1 <0>         0.1332
     29 H3          6.7119    2.7509    1.1233 H         1 <0>         0.1340
     30 H4          5.8357    0.4661    1.3971 H         1 <0>         0.1292
     31 H5          2.8383    1.2649   -1.5299 H         1 <0>         0.1305
     32 H6          3.7154    3.5492   -1.8047 H         1 <0>         0.1329
     33 H7          4.3405   -1.2031    0.8629 H         1 <0>         0.1252
     34 H8          2.2195   -0.0027    1.4803 H         1 <0>         0.1546
     35 H9          1.6798   -0.1632   -0.2082 H         1 <0>         0.1512
     36 H10         2.3189   -2.3511    1.6403 H         1 <0>         0.4358
     37 H11         0.8233   -1.9332    1.0895 H         1 <0>         0.4453
     38 H12         5.6373   -2.2210   -0.8550 H         1 <0>         0.4240
     39 H13         6.7881   -3.9482   -2.5234 H         1 <0>         0.1386
     40 H14         6.4485   -5.1129   -4.6783 H         1 <0>         0.1432
     41 H15         5.9505   -4.3376   -7.3269 H         1 <0>         0.1435
     42 H16         5.1727   -5.2962   -9.4469 H         1 <0>         0.1692
     43 H17         1.6259   -5.2657   -4.5123 H         1 <0>         0.1467
     44 H18        -0.2335   -6.4521   -5.9041 H         1 <0>         0.1818
     45 H19         1.9421   -2.5495    0.0486 H         1 <0>         0.4340
@<TRIPOS>BOND
     1    1    6 ar
     2    1    2 ar
     3    1   28 1
     4    2    3 ar
     5    2   29 1
     6    3    4 ar
     7    3   30 1
     8    4    5 ar
     9    4    7 1
    10    5    6 ar
    11    5   31 1
    12    6   32 1
    13    7    8 1
    14    7   10 1
    15    7   33 1
    16    8    9 1
    17    8   34 1
    18    8   35 1
    19    9   36 1
    20    9   37 1
    21    9   45 1
    22   10   11 2
    23   10   12 am
    24   12   13 1
    25   12   38 1
    26   13   17 1
    27   13   14 2
    28   14   15 1
    29   14   39 1
    30   15   16 2
    31   15   40 1
    32   16   17 1
    33   16   18 1
    34   18   23 ar
    35   18   19 ar
    36   19   20 ar
    37   19   41 1
    38   20   21 ar
    39   20   42 1
    40   21   22 ar
    41   22   26 1
    42   22   23 ar
    43   23   24 1
    44   24   25 2
    45   24   43 1
    46   25   26 1
    47   25   44 1
    48   26   27 1
@<TRIPOS>MOLECULE
CHEMBL207373
   46    49     0     0     0
SMALL
USER_CHARGES

@<TRIPOS>ATOM
      1 C1         -0.0167    1.3781    0.0096 C.ar      1 <0>        -0.0832
      2 C2          1.1709    2.0855    0.0021 C.ar      1 <0>        -0.1049
      3 C3          2.3773    1.4107   -0.0130 C.ar      1 <0>        -0.0807
      4 C4          2.3960    0.0285   -0.0201 C.ar      1 <0>        -0.1562
      5 C5          1.2084   -0.6789   -0.0117 C.ar      1 <0>        -0.1185
      6 C6          0.0021   -0.0041    0.0020 C.ar      1 <0>        -0.1039
      7 C7          3.7112   -0.7071   -0.0376 C.3       1 <0>         0.0984
      8 H1          4.4960   -0.0399   -0.3940 H         1 <0>         0.1605
      9 C8          4.0489   -1.1818    1.3772 C.3       1 <0>         0.0308
     10 O1          5.3482   -1.7764    1.3827 O.3       1 <0>        -0.3231
     11 C9          5.8035   -2.2535    2.5712 C.ar      1 <0>         0.0679
     12 C10         7.0596   -2.8405    2.6586 C.ar      1 <0>        -0.0906
     13 C11         7.4827   -3.3151    3.9022 C.ar      1 <0>        -0.0480
     14 C12         6.6341   -3.1825    5.0000 C.ar      1 <0>         0.0905
     15 N1          5.4505   -2.6193    4.8711 N.ar      1 <0>        -0.4382
     16 C13         5.0216   -2.1552    3.7136 C.ar      1 <0>         0.0252
     17 C14         8.8146   -3.9510    4.0523 C.ar      1 <0>        -0.0367
     18 C15         9.6581   -4.0711    2.9359 C.ar      1 <0>        -0.1140
     19 C16        10.8831   -4.6491    3.0442 C.ar      1 <0>        -0.0740
     20 C17        11.3190   -5.1355    4.2880 C.ar      1 <0>        -0.1089
     21 C18        12.5762   -5.7395    4.4483 C.ar      1 <0>         0.1484
     22 N2         12.9454   -6.1805    5.6282 N.ar      1 <0>        -0.4812
     23 C19        12.1762   -6.0841    6.7040 C.ar      1 <0>         0.0854
     24 C20        10.9398   -5.5157    6.6546 C.ar      1 <0>        -0.1542
     25 C21        10.4737   -5.0184    5.4227 C.ar      1 <0>        -0.0226
     26 C22         9.2167   -4.4153    5.2917 C.ar      1 <0>        -0.0869
     27 N3          3.6112   -1.8677   -0.9326 N.4       1 <0>        -0.6349
     28 H2         -0.9591    1.9053    0.0259 H         1 <0>         0.1389
     29 H3          1.1563    3.1654    0.0076 H         1 <0>         0.1403
     30 H4          3.3051    1.9634   -0.0196 H         1 <0>         0.1372
     31 H5          1.2231   -1.7588   -0.0176 H         1 <0>         0.1223
     32 H6         -0.9258   -0.5567    0.0082 H         1 <0>         0.1385
     33 H7          4.0357   -0.3312    2.0587 H         1 <0>         0.1145
     34 H8          3.3115   -1.9170    1.6995 H         1 <0>         0.0921
     35 H9          7.6923   -2.9278    1.7877 H         1 <0>         0.1505
     36 H10         6.9504   -3.5457    5.9666 H         1 <0>         0.1681
     37 H11         4.0460   -1.6959    3.6529 H         1 <0>         0.1582
     38 H12         9.3282   -3.6990    1.9773 H         1 <0>         0.1288
     39 H13        11.5199   -4.7346    2.1761 H         1 <0>         0.1402
     40 H14        13.2388   -5.8416    3.6016 H         1 <0>         0.1673
     41 H15        12.5404   -6.4674    7.6457 H         1 <0>         0.1588
     42 H16        10.3290   -5.4477    7.5426 H         1 <0>         0.1429
     43 H17         8.5666   -4.3168    6.1485 H         1 <0>         0.1389
     44 H18         4.4918   -2.3602   -0.9443 H         1 <0>         0.4436
     45 H19         2.8847   -2.4853   -0.6027 H         1 <0>         0.4313
     46 H20         3.3885   -1.5546   -1.8656 H         1 <0>         0.4416
@<TRIPOS>BOND
     1    1    6 ar
     2    1    2 ar
     3    1   28 1
     4    2    3 ar
     5    2   29 1
     6    3    4 ar
     7    3   30 1
     8    4    5 ar
     9    4    7 1
    10    5    6 ar
    11    5   31 1
    12    6   32 1
    13    7    8 1
    14    7    9 1
    15    7   27 1
    16    9   10 1
    17    9   33 1
    18    9   34 1
    19   10   11 1
    20   11   16 ar
    21   11   12 ar
    22   12   13 ar
    23   12   35 1
    24   13   14 ar
    25   13   17 1
    26   14   15 ar
    27   14   36 1
    28   15   16 ar
    29   16   37 1
    30   17   26 ar
    31   17   18 ar
    32   18   19 ar
    33   18   38 1
    34   19   20 ar
    35   19   39 1
    36   20   25 ar
    37   20   21 ar
    38   21   22 ar
    39   21   40 1
    40   22   23 ar
    41   23   24 ar
    42   23   41 1
    43   24   25 ar
    44   24   42 1
    45   25   26 ar
    46   26   43 1
    47   27   44 1
    48   27   45 1
    49   27   46 1
@<TRIPOS>MOLECULE
CHEMBL207373
   45    48     0     0     0
SMALL
USER_CHARGES

@<TRIPOS>ATOM
      1 C1         -0.0167    1.3781    0.0096 C.ar      1 <0>        -0.1157
      2 C2          1.1709    2.0855    0.0021 C.ar      1 <0>        -0.1175
      3 C3          2.3773    1.4107   -0.0130 C.ar      1 <0>        -0.1081
      4 C4          2.3960    0.0285   -0.0201 C.ar      1 <0>        -0.0806
      5 C5          1.2084   -0.6789   -0.0117 C.ar      1 <0>        -0.1034
      6 C6          0.0021   -0.0041    0.0020 C.ar      1 <0>        -0.1181
      7 C7          3.7112   -0.7071   -0.0376 C.3       1 <0>         0.1410
      8 H1          4.4960   -0.0399   -0.3940 H         1 <0>         0.1022
      9 C8          4.0489   -1.1818    1.3772 C.3       1 <0>         0.0221
     10 O1          5.3482   -1.7764    1.3827 O.3       1 <0>        -0.3072
     11 C9          5.8035   -2.2535    2.5712 C.ar      1 <0>         0.0859
     12 C10         7.0596   -2.8405    2.6586 C.ar      1 <0>        -0.0982
     13 C11         7.4827   -3.3151    3.9022 C.ar      1 <0>        -0.0597
     14 C12         6.6341   -3.1825    5.0000 C.ar      1 <0>         0.0755
     15 N1          5.4505   -2.6193    4.8711 N.ar      1 <0>        -0.4422
     16 C13         5.0216   -2.1552    3.7136 C.ar      1 <0>         0.0206
     17 C14         8.8146   -3.9510    4.0523 C.ar      1 <0>        -0.0217
     18 C15         9.6581   -4.0711    2.9359 C.ar      1 <0>        -0.1106
     19 C16        10.8831   -4.6491    3.0442 C.ar      1 <0>        -0.0780
     20 C17        11.3190   -5.1355    4.2880 C.ar      1 <0>        -0.1114
     21 C18        12.5762   -5.7395    4.4483 C.ar      1 <0>         0.1480
     22 N2         12.9454   -6.1805    5.6282 N.ar      1 <0>        -0.4869
     23 C19        12.1762   -6.0841    6.7040 C.ar      1 <0>         0.0795
     24 C20        10.9398   -5.5157    6.6546 C.ar      1 <0>        -0.1541
     25 C21        10.4737   -5.0184    5.4227 C.ar      1 <0>        -0.0212
     26 C22         9.2167   -4.4153    5.2917 C.ar      1 <0>        -0.0965
     27 N3          3.6112   -1.8677   -0.9326 N.3       1 <0>        -0.8344
     28 H2         -0.9591    1.9053    0.0259 H         1 <0>         0.1237
     29 H3          1.1563    3.1654    0.0076 H         1 <0>         0.1250
     30 H4          3.3051    1.9634   -0.0196 H         1 <0>         0.1239
     31 H5          1.2231   -1.7588   -0.0176 H         1 <0>         0.1200
     32 H6         -0.9258   -0.5567    0.0082 H         1 <0>         0.1242
     33 H7          4.0357   -0.3312    2.0587 H         1 <0>         0.0732
     34 H8          3.3115   -1.9170    1.6995 H         1 <0>         0.0677
     35 H9          7.6923   -2.9278    1.7877 H         1 <0>         0.1479
     36 H10         6.9504   -3.5457    5.9666 H         1 <0>         0.1620
     37 H11         4.0460   -1.6959    3.6529 H         1 <0>         0.1590
     38 H12         9.3282   -3.6990    1.9773 H         1 <0>         0.1319
     39 H13        11.5199   -4.7346    2.1761 H         1 <0>         0.1390
     40 H14        13.2388   -5.8416    3.6016 H         1 <0>         0.1655
     41 H15        12.5404   -6.4674    7.6457 H         1 <0>         0.1556
     42 H16        10.3290   -5.4477    7.5426 H         1 <0>         0.1407
     43 H17         8.5666   -4.3168    6.1485 H         1 <0>         0.1381
     44 H18         4.4989   -2.3407   -1.0118 H         1 <0>         0.3525
     45 H19         2.8899   -2.5018   -0.6233 H         1 <0>         0.3407
@<TRIPOS>BOND
     1    1    6 ar
     2    1    2 ar
     3    1   28 1
     4    2    3 ar
     5    2   29 1
     6    3    4 ar
     7    3   30 1
     8    4    5 ar
     9    4    7 1
    10    5    6 ar
    11    5   31 1
    12    6   32 1
    13    7    8 1
    14    7    9 1
    15    7   27 1
    16    9   10 1
    17    9   33 1
    18    9   34 1
    19   10   11 1
    20   11   16 ar
    21   11   12 ar
    22   12   13 ar
    23   12   35 1
    24   13   14 ar
    25   13   17 1
    26   14   15 ar
    27   14   36 1
    28   15   16 ar
    29   16   37 1
    30   17   26 ar
    31   17   18 ar
    32   18   19 ar
    33   18   38 1
    34   19   20 ar
    35   19   39 1
    36   20   25 ar
    37   20   21 ar
    38   21   22 ar
    39   21   40 1
    40   22   23 ar
    41   23   24 ar
    42   23   41 1
    43   24   25 ar
    44   24   42 1
    45   25   26 ar
    46   26   43 1
    47   27   44 1
    48   27   45 1
@<TRIPOS>MOLECULE
CHEMBL469560
   46    49     0     0     0
SMALL
USER_CHARGES

@<TRIPOS>ATOM
      1 C1          3.3839    2.7925    2.3781 C.ar      1 <0>        -0.0994
      2 C2          4.2650    2.7771    1.3131 C.ar      1 <0>        -0.1116
      3 C3          4.3769    1.6470    0.5250 C.ar      1 <0>        -0.1016
      4 C4          3.6081    0.5321    0.8022 C.ar      1 <0>        -0.1426
      5 C5          2.7276    0.5472    1.8678 C.ar      1 <0>        -0.1134
      6 C6          2.6147    1.6778    2.6550 C.ar      1 <0>        -0.1094
      7 C7          3.7294   -0.6997   -0.0576 C.3       1 <0>         0.1022
      8 C8          2.5744   -0.7376   -1.0602 C.3       1 <0>         0.0081
      9 N1          2.6390   -1.9841   -1.8347 N.4       1 <0>        -0.6304
     10 N2          3.6797   -1.8968    0.7922 N.3       1 <0>        -0.6959
     11 C9          4.9995   -2.1898    1.3668 C.3       1 <0>         0.1487
     12 C10         4.8895   -3.3638    2.3054 C.2       1 <0>        -0.1826
     13 C11         5.0348   -4.6878    2.0375 C.2       1 <0>        -0.1193
     14 C12         4.8906   -5.5988    3.0591 C.2       1 <0>        -0.1492
     15 C13         4.6038   -5.1369    4.3179 C.2       1 <0>        -0.0858
     16 S1          4.5423   -3.3718    4.0565 S.3       1 <0>         0.0837
     17 C14         4.4034   -5.8992    5.5643 C.ar      1 <0>         0.0618
     18 C15         3.5354   -6.9945    5.6100 C.ar      1 <0>        -0.1722
     19 C16         3.3778   -7.6809    6.7987 C.ar      1 <0>         0.1416
     20 N3          4.0239   -7.3312    7.8924 N.ar      1 <0>        -0.4884
     21 C17         4.8620   -6.3019    7.9164 C.ar      1 <0>         0.2908
     22 C18         5.0849   -5.5520    6.7482 C.ar      1 <0>        -0.1355
     23 C19         6.0489   -4.5133    7.1043 C.2       1 <0>        -0.2019
     24 C20         6.3461   -4.6860    8.4032 C.2       1 <0>         0.0770
     25 N4          5.6391   -5.7463    8.9045 N.pl3     1 <0>        -0.5791
     26 H1          5.6873   -6.0644    9.8196 H         1 <0>         0.4251
     27 H2          3.2996    3.6739    2.9965 H         1 <0>         0.1310
     28 H3          4.8656    3.6481    1.0965 H         1 <0>         0.1310
     29 H4          5.0648    1.6351   -0.3075 H         1 <0>         0.1264
     30 H5          2.1267   -0.3237    2.0841 H         1 <0>         0.1219
     31 H6          1.9265    1.6898    3.4873 H         1 <0>         0.1305
     32 H7          4.6770   -0.6752   -0.5957 H         1 <0>         0.1136
     33 H8          1.6264   -0.6915   -0.5243 H         1 <0>         0.1337
     34 H9          2.6516    0.1143   -1.7358 H         1 <0>         0.1396
     35 H10         1.9315   -1.9702   -2.5540 H         1 <0>         0.4356
     36 H11         3.5498   -2.0688   -2.2604 H         1 <0>         0.4331
     37 H12         2.9840   -1.7976    1.5163 H         1 <0>         0.3598
     38 H13         5.6994   -2.4291    0.5662 H         1 <0>         0.1006
     39 H14         5.3586   -1.3188    1.9150 H         1 <0>         0.0619
     40 H15         5.2604   -5.0214    1.0354 H         1 <0>         0.1344
     41 H16         5.0008   -6.6569    2.8729 H         1 <0>         0.1395
     42 H17         2.9943   -7.3000    4.7266 H         1 <0>         0.1422
     43 H18         2.7066   -8.5264    6.8324 H         1 <0>         0.1689
     44 H19         6.4468   -3.7528    6.4488 H         1 <0>         0.1497
     45 H20         7.0334   -4.0749    8.9693 H         1 <0>         0.1839
     46 H21         2.4799   -2.7696   -1.2217 H         1 <0>         0.4420
@<TRIPOS>BOND
     1    1    6 ar
     2    1    2 ar
     3    1   27 1
     4    2    3 ar
     5    2   28 1
     6    3    4 ar
     7    3   29 1
     8    4    5 ar
     9    4    7 1
    10    5    6 ar
    11    5   30 1
    12    6   31 1
    13    7    8 1
    14    7   10 1
    15    7   32 1
    16    8    9 1
    17    8   33 1
    18    8   34 1
    19    9   35 1
    20    9   36 1
    21    9   46 1
    22   10   11 1
    23   10   37 1
    24   11   12 1
    25   11   38 1
    26   11   39 1
    27   12   16 1
    28   12   13 2
    29   13   14 1
    30   13   40 1
    31   14   15 2
    32   14   41 1
    33   15   16 1
    34   15   17 1
    35   17   22 ar
    36   17   18 ar
    37   18   19 ar
    38   18   42 1
    39   19   20 ar
    40   19   43 1
    41   20   21 ar
    42   21   25 1
    43   21   22 ar
    44   22   23 1
    45   23   24 2
    46   23   44 1
    47   24   25 1
    48   24   45 1
    49   25   26 1
@<TRIPOS>MOLECULE
CHEMBL469560
   46    49     0     0     0
SMALL
USER_CHARGES

@<TRIPOS>ATOM
      1 C1          0.5761    2.1212   -1.1887 C.ar      1 <0>        -0.1004
      2 C2          1.8525    2.6325   -1.0467 C.ar      1 <0>        -0.1161
      3 C3          2.9024    1.7917   -0.7280 C.ar      1 <0>        -0.1056
      4 C4          2.6759    0.4396   -0.5508 C.ar      1 <0>        -0.0997
      5 C5          1.3993   -0.0716   -0.6919 C.ar      1 <0>        -0.0883
      6 C6          0.3496    0.7690   -1.0120 C.ar      1 <0>        -0.1178
      7 C7          3.8206   -0.4772   -0.2043 C.3       1 <0>         0.1167
      8 C8          3.8098   -0.7609    1.2991 C.3       1 <0>        -0.0422
      9 N1          4.8831   -1.7089    1.6263 N.4       1 <0>        -0.6433
     10 N2          3.6775   -1.7395   -0.9419 N.3       1 <0>        -0.6793
     11 C9          4.9894   -2.2726   -1.3326 C.3       1 <0>         0.1495
     12 C10         4.7988   -3.4831   -2.2097 C.2       1 <0>        -0.1911
     13 C11         4.6936   -3.5494   -3.5627 C.2       1 <0>        -0.1023
     14 C12         4.5221   -4.7760   -4.1630 C.2       1 <0>        -0.1465
     15 C13         4.4631   -5.8942   -3.3716 C.2       1 <0>        -0.0728
     16 S1          4.6611   -5.1996   -1.7388 S.3       1 <0>         0.0596
     17 C14         4.2871   -7.3041   -3.7666 C.ar      1 <0>         0.0582
     18 C15         3.2630   -7.6881   -4.6377 C.ar      1 <0>        -0.1686
     19 C16         3.1345   -9.0201   -4.9819 C.ar      1 <0>         0.1430
     20 N3          3.9520   -9.9400   -4.5112 N.ar      1 <0>        -0.4872
     21 C17         4.9441   -9.6420   -3.6810 C.ar      1 <0>         0.2904
     22 C18         5.1492   -8.3091   -3.2835 C.ar      1 <0>        -0.1352
     23 C19         6.3048   -8.3200   -2.3895 C.2       1 <0>        -0.2038
     24 C20         6.7189   -9.5953   -2.3031 C.2       1 <0>         0.0777
     25 N4          5.9112  -10.3984   -3.0633 N.pl3     1 <0>        -0.5790
     26 H1          6.0128  -11.3583   -3.1596 H         1 <0>         0.4254
     27 H2         -0.2449    2.7788   -1.4333 H         1 <0>         0.1287
     28 H3          2.0296    3.6889   -1.1851 H         1 <0>         0.1291
     29 H4          3.8998    2.1911   -0.6177 H         1 <0>         0.1234
     30 H5          1.2223   -1.1280   -0.5539 H         1 <0>         0.1225
     31 H6         -0.6477    0.3695   -1.1227 H         1 <0>         0.1281
     32 H7          4.7625   -0.0016   -0.4775 H         1 <0>         0.1134
     33 H8          3.9673    0.1690    1.8455 H         1 <0>         0.1496
     34 H9          2.8480   -1.1894    1.5810 H         1 <0>         0.1423
     35 H10         4.8934   -1.8750    2.6215 H         1 <0>         0.4424
     36 H11         4.7224   -2.5793    1.1417 H         1 <0>         0.4274
     37 H12         3.1581   -2.4163   -0.4030 H         1 <0>         0.3505
     38 H13         5.5428   -1.5102   -1.8809 H         1 <0>         0.1130
     39 H14         5.5474   -2.5550   -0.4398 H         1 <0>         0.0240
     40 H15         4.7435   -2.6508   -4.1597 H         1 <0>         0.1389
     41 H16         4.4354   -4.8562   -5.2365 H         1 <0>         0.1431
     42 H17         2.5802   -6.9525   -5.0364 H         1 <0>         0.1440
     43 H18         2.3427   -9.3152   -5.6545 H         1 <0>         0.1703
     44 H19         6.7428   -7.4663   -1.8937 H         1 <0>         0.1486
     45 H20         7.5580   -9.9371   -1.7153 H         1 <0>         0.1834
     46 H21         5.7708   -1.3238    1.3404 H         1 <0>         0.4362
@<TRIPOS>BOND
     1    1    6 ar
     2    1    2 ar
     3    1   27 1
     4    2    3 ar
     5    2   28 1
     6    3    4 ar
     7    3   29 1
     8    4    5 ar
     9    4    7 1
    10    5    6 ar
    11    5   30 1
    12    6   31 1
    13    7    8 1
    14    7   10 1
    15    7   32 1
    16    8    9 1
    17    8   33 1
    18    8   34 1
    19    9   35 1
    20    9   36 1
    21    9   46 1
    22   10   11 1
    23   10   37 1
    24   11   12 1
    25   11   38 1
    26   11   39 1
    27   12   16 1
    28   12   13 2
    29   13   14 1
    30   13   40 1
    31   14   15 2
    32   14   41 1
    33   15   16 1
    34   15   17 1
    35   17   22 ar
    36   17   18 ar
    37   18   19 ar
    38   18   42 1
    39   19   20 ar
    40   19   43 1
    41   20   21 ar
    42   21   25 1
    43   21   22 ar
    44   22   23 1
    45   23   24 2
    46   23   44 1
    47   24   25 1
    48   24   45 1
    49   25   26 1
@<TRIPOS>MOLECULE
CHEMBL211434
   65    71     0     0     0
SMALL
USER_CHARGES

@<TRIPOS>ATOM
      1 C1         -0.0165    1.3620    0.0095 C.ar      1 <0>        -0.1440
      2 C2          1.1697    2.0834    0.0021 C.ar      1 <0>        -0.0965
      3 C3          2.3856    1.4362   -0.0134 C.ar      1 <0>        -0.1315
      4 C4          2.4281    0.0456   -0.0212 C.ar      1 <0>         0.1028
      5 C5          1.2234   -0.6807   -0.0132 C.ar      1 <0>        -0.0846
      6 C6          0.0021   -0.0041    0.0020 C.ar      1 <0>        -0.0599
      7 C7          1.6036   -2.0953   -0.0245 C.2       1 <0>        -0.1661
      8 C8          2.9451   -2.1410   -0.0380 C.2       1 <0>         0.0475
      9 N1          3.4551   -0.8713   -0.0363 N.pl3     1 <0>        -0.5932
     10 H1          4.3995   -0.6501   -0.0442 H         1 <0>         0.4147
     11 C9          0.6664   -3.2754   -0.0210 C.3       1 <0>        -0.0612
     12 C10         0.2361   -3.5891   -1.4554 C.3       1 <0>         0.1698
     13 H2          1.1200   -3.7379   -2.0756 H         1 <0>         0.1037
     14 C11        -0.6144   -4.8610   -1.4661 C.3       1 <0>         0.0450
     15 O1         -1.7110   -4.7083   -0.5627 O.3       1 <0>        -0.3003
     16 C12        -2.5699   -5.7559   -0.4522 C.ar      1 <0>         0.0792
     17 C13        -3.6637   -5.6816    0.4011 C.ar      1 <0>        -0.0665
     18 C14        -4.5173   -6.7843    0.4798 C.ar      1 <0>        -0.0631
     19 C15        -4.2407   -7.9090   -0.2957 C.ar      1 <0>         0.0880
     20 N2         -3.1918   -7.9359   -1.0917 N.ar      1 <0>        -0.4456
     21 C16        -2.3684   -6.9109   -1.1949 C.ar      1 <0>         0.0280
     22 C17        -5.6998   -6.7591    1.3752 C.ar      1 <0>         0.2115
     23 C18        -6.5333   -7.8724    1.4412 C.ar      1 <0>        -0.1771
     24 C19        -7.6349   -7.8334    2.2837 C.ar      1 <0>        -0.0174
     25 C20        -7.8562   -6.6893    3.0212 C.ar      1 <0>        -0.1870
     26 C21        -6.9914   -5.6045    2.9176 C.ar      1 <0>         0.3618
     27 N3         -5.9432   -5.6796    2.1037 N.ar      1 <0>        -0.4961
     28 N4         -7.4156   -4.5739    3.7504 N.am      1 <0>        -0.6463
     29 C22        -8.5323   -4.8890    4.4275 C.2       1 <0>         0.5369
     30 O2         -9.1186   -4.1816    5.2191 O.2       1 <0>        -0.4877
     31 C23        -8.9216   -6.2932    4.0159 C.3       1 <0>        -0.1121
     32 N5         -0.5497   -2.4718   -1.9849 N.pl3     1 <0>        -0.7141
     33 C24         0.0926   -1.3804   -2.5579 C.ar      1 <0>         0.4564
     34 C25         1.4813   -1.3634   -2.6278 C.ar      1 <0>        -0.2358
     35 C26         2.1081   -0.2681   -3.2020 C.ar      1 <0>         0.0109
     36 C27         1.3228    0.7607   -3.6807 C.ar      1 <0>        -0.2425
     37 C28        -0.0614    0.6927   -3.5856 C.ar      1 <0>         0.3985
     38 N6         -0.6270   -0.3779   -3.0324 N.ar      1 <0>        -0.5589
     39 N7         -0.6355    1.8366   -4.1310 N.am      1 <0>        -0.6463
     40 C29         0.2834    2.6967   -4.6008 C.2       1 <0>         0.5373
     41 O3          0.0660    3.7679   -5.1261 O.2       1 <0>        -0.4985
     42 C30         1.6419    2.0759   -4.3511 C.3       1 <0>        -0.1024
     43 H3         -0.9613    1.8849    0.0259 H         1 <0>         0.1136
     44 H4          1.1388    3.1630    0.0081 H         1 <0>         0.1189
     45 H5          3.3028    2.0064   -0.0198 H         1 <0>         0.1152
     46 H6         -0.9246   -0.5587    0.0082 H         1 <0>         0.1142
     47 H7          3.5346   -3.0459   -0.0490 H         1 <0>         0.1668
     48 H8          1.1742   -4.1414    0.4036 H         1 <0>         0.0807
     49 H9         -0.2127   -3.0396    0.5787 H         1 <0>         0.0850
     50 H10        -0.9944   -5.0354   -2.4727 H         1 <0>         0.0771
     51 H11        -0.0037   -5.7090   -1.1563 H         1 <0>         0.0853
     52 H12        -3.8488   -4.7946    0.9887 H         1 <0>         0.1541
     53 H13        -4.8935   -8.7678   -0.2430 H         1 <0>         0.1646
     54 H14        -1.5227   -6.9729   -1.8637 H         1 <0>         0.1609
     55 H15        -6.3263   -8.7503    0.8471 H         1 <0>         0.1505
     56 H16        -8.3031   -8.6784    2.3600 H         1 <0>         0.1494
     57 H17        -6.9564   -3.7234    3.8332 H         1 <0>         0.4200
     58 H18        -9.9044   -6.2949    3.5445 H         1 <0>         0.1308
     59 H19        -8.9083   -6.9616    4.8768 H         1 <0>         0.1308
     60 H20        -1.5182   -2.4936   -1.9356 H         1 <0>         0.4077
     61 H21         2.0613   -2.1884   -2.2413 H         1 <0>         0.1388
     62 H22         3.1848   -0.2211   -3.2726 H         1 <0>         0.1268
     63 H23        -1.5917    1.9951   -4.1684 H         1 <0>         0.4148
     64 H24         2.2354    2.7078   -3.6904 H         1 <0>         0.1185
     65 H25         2.1646    1.9082   -5.2928 H         1 <0>         0.1183
@<TRIPOS>BOND
     1    1    6 ar
     2    1    2 ar
     3    1   43 1
     4    2    3 ar
     5    2   44 1
     6    3    4 ar
     7    3   45 1
     8    4    9 1
     9    4    5 ar
    10    5    6 ar
    11    5    7 1
    12    6   46 1
    13    7    8 2
    14    7   11 1
    15    8    9 1
    16    8   47 1
    17    9   10 1
    18   11   12 1
    19   11   48 1
    20   11   49 1
    21   12   13 1
    22   12   14 1
    23   12   32 1
    24   14   15 1
    25   14   50 1
    26   14   51 1
    27   15   16 1
    28   16   21 ar
    29   16   17 ar
    30   17   18 ar
    31   17   52 1
    32   18   19 ar
    33   18   22 1
    34   19   20 ar
    35   19   53 1
    36   20   21 ar
    37   21   54 1
    38   22   27 ar
    39   22   23 ar
    40   23   24 ar
    41   23   55 1
    42   24   25 ar
    43   24   56 1
    44   25   31 1
    45   25   26 ar
    46   26   27 ar
    47   26   28 1
    48   28   29 am
    49   28   57 1
    50   29   30 2
    51   29   31 1
    52   31   58 1
    53   31   59 1
    54   32   33 1
    55   32   60 1
    56   33   38 ar
    57   33   34 ar
    58   34   35 ar
    59   34   61 1
    60   35   36 ar
    61   35   62 1
    62   36   42 1
    63   36   37 ar
    64   37   38 ar
    65   37   39 1
    66   39   40 am
    67   39   63 1
    68   40   41 2
    69   40   42 1
    70   42   64 1
    71   42   65 1
@<TRIPOS>MOLECULE
CHEMBL594748
   57    61     0     0     0
SMALL
USER_CHARGES

@<TRIPOS>ATOM
      1 C1         -0.0184    1.5028    0.0103 C.3       1 <0>        -0.0776
      2 C2          0.0021   -0.0041    0.0020 C.2       1 <0>         0.1049
      3 C3          0.0084   -0.8581   -1.1821 C.ar      1 <0>        -0.1801
      4 C4         -0.0016   -0.6080   -2.5572 C.ar      1 <0>        -0.0061
      5 C5          0.0091   -1.6744   -3.4436 C.ar      1 <0>        -0.1138
      6 C6          0.0296   -2.9903   -2.9629 C.ar      1 <0>        -0.0298
      7 C7          0.0389   -3.2414   -1.6232 C.ar      1 <0>        -0.1373
      8 C8          0.0290   -2.1860   -0.7124 C.ar      1 <0>         0.1506
      9 N1          0.0346   -2.1193    0.6567 N.pl3     1 <0>        -0.5050
     10 H1          0.0483   -2.8812    1.2569 H         1 <0>         0.4441
     11 N2          0.0230   -0.7772    1.0497 N.2       1 <0>        -0.2444
     12 C9         -0.0018   -1.4214   -4.9040 C.ar      1 <0>        -0.0215
     13 C10        -0.9332   -0.5484   -5.4655 C.ar      1 <0>        -0.0856
     14 C11        -0.9022   -0.3441   -6.8400 C.ar      1 <0>         0.0648
     15 C12         0.0457   -1.0083   -7.6076 C.ar      1 <0>         0.0324
     16 N3          0.9156   -1.8284   -7.0551 N.ar      1 <0>        -0.4289
     17 C13         0.9307   -2.0532   -5.7463 C.ar      1 <0>         0.2043
     18 C14         1.9285   -2.9761   -5.1729 C.2       1 <0>        -0.1412
     19 C15         2.4590   -4.1188   -5.7131 C.2       1 <0>        -0.1041
     20 C16         3.3881   -4.8258   -4.9834 C.2       1 <0>        -0.1673
     21 C17         3.7498   -4.3721   -3.7552 C.2       1 <0>        -0.1667
     22 S1          2.7651   -2.8914   -3.5979 S.3       1 <0>         0.1020
     23 O1         -1.7924    0.4983   -7.4279 O.3       1 <0>        -0.3206
     24 C18        -1.6975    0.6564   -8.8450 C.3       1 <0>         0.0262
     25 C19        -2.7727    1.6348   -9.3222 C.3       1 <0>         0.0438
     26 H2         -3.7514    1.2906   -8.9878 H         1 <0>         0.1557
     27 C20        -2.7528    1.7089  -10.8502 C.3       1 <0>        -0.0972
     28 C21        -3.8897    2.5763  -11.3259 C.ar      1 <0>        -0.1304
     29 C22        -5.1232    2.0131  -11.5946 C.ar      1 <0>        -0.1029
     30 C23        -6.1660    2.8088  -12.0309 C.ar      1 <0>        -0.1053
     31 C24        -5.9754    4.1677  -12.1981 C.ar      1 <0>        -0.1013
     32 C25        -4.7421    4.7310  -11.9286 C.ar      1 <0>        -0.1074
     33 C26        -3.7005    3.9360  -11.4882 C.ar      1 <0>        -0.1401
     34 N4         -2.5050    2.9669   -8.7638 N.4       1 <0>        -0.6366
     35 H3          1.0042    1.8801    0.0026 H         1 <0>         0.0857
     36 H4         -0.5455    1.8639   -0.8728 H         1 <0>         0.0801
     37 H5         -0.5286    1.8543    0.9071 H         1 <0>         0.0828
     38 H6         -0.0177    0.4069   -2.9262 H         1 <0>         0.1296
     39 H7          0.0377   -3.8142   -3.6611 H         1 <0>         0.1304
     40 H8          0.0541   -4.2607   -1.2664 H         1 <0>         0.1330
     41 H9         -1.6610   -0.0436   -4.8475 H         1 <0>         0.1519
     42 H10         0.0696   -0.8500   -8.6757 H         1 <0>         0.1612
     43 H11         2.1539   -4.4581   -6.6920 H         1 <0>         0.1380
     44 H12         3.8235   -5.7300   -5.3824 H         1 <0>         0.1393
     45 H13         4.4549   -4.7960   -3.0555 H         1 <0>         0.1894
     46 H14        -0.7123    1.0454   -9.1021 H         1 <0>         0.0932
     47 H15        -1.8444   -0.3092   -9.3289 H         1 <0>         0.1147
     48 H16        -1.8064    2.1366  -11.1810 H         1 <0>         0.1038
     49 H17        -2.8629    0.7065  -11.2641 H         1 <0>         0.1255
     50 H18        -5.2721    0.9515  -11.4639 H         1 <0>         0.1307
     51 H19        -7.1295    2.3687  -12.2414 H         1 <0>         0.1334
     52 H20        -6.7899    4.7892  -12.5397 H         1 <0>         0.1329
     53 H21        -4.5931    5.7926  -12.0596 H         1 <0>         0.1325
     54 H22        -2.7380    4.3767  -11.2741 H         1 <0>         0.1229
     55 H23        -3.2141    3.6121   -9.0785 H         1 <0>         0.4366
     56 H24        -2.5181    2.9180   -7.7561 H         1 <0>         0.4424
     57 H25        -1.5991    3.2855   -9.0733 H         1 <0>         0.4323
@<TRIPOS>BOND
     1    1    2 1
     2    1   35 1
     3    1   36 1
     4    1   37 1
     5    2   11 2
     6    2    3 1
     7    3    8 ar
     8    3    4 ar
     9    4    5 ar
    10    4   38 1
    11    5    6 ar
    12    5   12 1
    13    6    7 ar
    14    6   39 1
    15    7    8 ar
    16    7   40 1
    17    8    9 1
    18    9   10 1
    19    9   11 1
    20   12   17 ar
    21   12   13 ar
    22   13   14 ar
    23   13   41 1
    24   14   15 ar
    25   14   23 1
    26   15   16 ar
    27   15   42 1
    28   16   17 ar
    29   17   18 1
    30   18   22 1
    31   18   19 2
    32   19   20 1
    33   19   43 1
    34   20   21 2
    35   20   44 1
    36   21   22 1
    37   21   45 1
    38   23   24 1
    39   24   25 1
    40   24   46 1
    41   24   47 1
    42   25   26 1
    43   25   27 1
    44   25   34 1
    45   27   28 1
    46   27   48 1
    47   27   49 1
    48   28   33 ar
    49   28   29 ar
    50   29   30 ar
    51   29   50 1
    52   30   31 ar
    53   30   51 1
    54   31   32 ar
    55   31   52 1
    56   32   33 ar
    57   32   53 1
    58   33   54 1
    59   34   55 1
    60   34   56 1
    61   34   57 1
@<TRIPOS>MOLECULE
CHEMBL521851
   62    67     0     0     0
SMALL
USER_CHARGES

@<TRIPOS>ATOM
      1 C1         -1.2179    0.3618   -0.7929 C.3       1 <0>        -0.6727
      2 S1         -0.8608   -1.4165   -0.7657 S.o2      1 <0>         2.6086
      3 O1         -0.0554   -1.7368    0.3604 O.2       1 <0>        -0.9532
      4 O2         -2.0406   -2.1570   -1.0467 O.2       1 <0>        -0.9539
      5 N1          0.1211   -1.6734   -2.0742 N.pl3     1 <0>        -1.0033
      6 C2         -0.4464   -1.9994   -3.3914 C.3       1 <0>         0.1224
      7 C3          0.2528   -3.2539   -3.9258 C.3       1 <0>         0.0451
      8 N2          1.7067   -3.0443   -3.9105 N.3       1 <0>        -0.5316
      9 C4          2.2031   -2.8527   -2.5412 C.3       1 <0>         0.0371
     10 C5          1.5835   -1.5758   -1.9515 C.3       1 <0>         0.1234
     11 C6          2.4055   -4.1534   -4.5734 C.3       1 <0>         0.1300
     12 C7          3.8574   -3.7940   -4.7575 C.2       1 <0>        -0.0864
     13 C8          4.8850   -4.0220   -3.9198 C.2       1 <0>        -0.1471
     14 C9          6.2159   -3.5887   -4.2968 C.ar      1 <0>         0.2076
     15 C10         6.2960   -2.9484   -5.5522 C.ar      1 <0>        -0.3029
     16 S2          4.6250   -2.9718   -6.1413 S.3       1 <0>         0.1024
     17 C11         7.5058   -2.4811   -6.0423 C.ar      1 <0>         0.5055
     18 N3          8.5981   -2.6496   -5.2999 N.ar      1 <0>        -0.5559
     19 C12         8.5129   -3.2543   -4.1181 C.ar      1 <0>         0.4114
     20 N4          7.3823   -3.7111   -3.6207 N.ar      1 <0>        -0.5253
     21 C13         9.7506   -3.4228   -3.3231 C.ar      1 <0>         0.0278
     22 C14        10.9622   -2.9521   -3.8074 C.ar      1 <0>        -0.1016
     23 C15        12.1227   -3.1090   -3.0655 C.ar      1 <0>        -0.0792
     24 C16        12.0948   -3.7329   -1.8377 C.ar      1 <0>        -0.1198
     25 C17        10.8933   -4.2156   -1.3259 C.ar      1 <0>         0.1177
     26 C18         9.7061   -4.0584   -2.0641 C.ar      1 <0>        -0.1364
     27 C19         8.6656   -4.6312   -1.2987 C.2       1 <0>         0.0923
     28 N5          9.1685   -5.0916   -0.1893 N.2       1 <0>        -0.2546
     29 N6         10.5502   -4.8651   -0.1671 N.pl3     1 <0>        -0.5083
     30 H1         11.1568   -5.1130    0.5481 H         1 <0>         0.4418
     31 N7          7.5766   -1.8539   -7.2757 N.pl3     1 <0>        -0.5948
     32 C20         6.3563   -1.5252   -8.0294 C.3       1 <0>         0.0878
     33 C21         6.4273   -0.0515   -8.4456 C.3       1 <0>         0.0500
     34 O3          7.6692    0.1903   -9.1113 O.3       1 <0>        -0.3752
     35 C22         8.8226   -0.0241   -8.2943 C.3       1 <0>         0.0453
     36 C23         8.8740   -1.4913   -7.8678 C.3       1 <0>         0.0863
     37 H2         -0.2856    0.9209   -0.7133 H         1 <0>         0.1276
     38 H3         -1.7166    0.6180   -1.7276 H         1 <0>         0.1278
     39 H4         -1.8661    0.6151    0.0461 H         1 <0>         0.1284
     40 H5         -1.5151   -2.1898   -3.2927 H         1 <0>         0.1007
     41 H6         -0.2815   -1.1682   -4.0770 H         1 <0>         0.0790
     42 H7          0.0016   -4.1068   -3.2953 H         1 <0>         0.0472
     43 H8         -0.0762   -3.4465   -4.9469 H         1 <0>         0.0927
     44 H9          1.9247   -3.7112   -1.9300 H         1 <0>         0.0475
     45 H10         3.2885   -2.7545   -2.5582 H         1 <0>         0.0918
     46 H11         1.9397   -0.7046   -2.5013 H         1 <0>         0.0780
     47 H12         1.8575   -1.4860   -0.9003 H         1 <0>         0.0997
     48 H13         2.3283   -5.0505   -3.9590 H         1 <0>         0.0677
     49 H14         1.9510   -4.3394   -5.5465 H         1 <0>         0.1006
     50 H15         4.7202   -4.5219   -2.9767 H         1 <0>         0.1479
     51 H16        11.0018   -2.4609   -4.7683 H         1 <0>         0.1410
     52 H17        13.0593   -2.7381   -3.4547 H         1 <0>         0.1377
     53 H18        13.0070   -3.8483   -1.2711 H         1 <0>         0.1302
     54 H19         7.6256   -4.6789   -1.5860 H         1 <0>         0.2037
     55 H20         6.2923   -2.1546   -8.9170 H         1 <0>         0.0878
     56 H21         5.4812   -1.6871   -7.4000 H         1 <0>         0.0911
     57 H22         5.6022    0.1764   -9.1203 H         1 <0>         0.1135
     58 H23         6.3598    0.5805   -7.5601 H         1 <0>         0.0595
     59 H24         9.7207    0.2235   -8.8601 H         1 <0>         0.1116
     60 H25         8.7638    0.6080   -7.4083 H         1 <0>         0.0581
     61 H26         9.6654   -1.6309   -7.1314 H         1 <0>         0.1107
     62 H27         9.0678   -2.1173   -8.7388 H         1 <0>         0.0783
@<TRIPOS>BOND
     1    1    2 1
     2    1   37 1
     3    1   38 1
     4    1   39 1
     5    2    3 2
     6    2    4 2
     7    2    5 1
     8    5   10 1
     9    5    6 1
    10    6    7 1
    11    6   40 1
    12    6   41 1
    13    7    8 1
    14    7   42 1
    15    7   43 1
    16    8    9 1
    17    8   11 1
    18    9   10 1
    19    9   44 1
    20    9   45 1
    21   10   46 1
    22   10   47 1
    23   11   12 1
    24   11   48 1
    25   11   49 1
    26   12   16 1
    27   12   13 2
    28   13   14 1
    29   13   50 1
    30   14   20 ar
    31   14   15 ar
    32   15   16 1
    33   15   17 ar
    34   17   18 ar
    35   17   31 1
    36   18   19 ar
    37   19   20 ar
    38   19   21 1
    39   21   26 ar
    40   21   22 ar
    41   22   23 ar
    42   22   51 1
    43   23   24 ar
    44   23   52 1
    45   24   25 ar
    46   24   53 1
    47   25   29 1
    48   25   26 ar
    49   26   27 1
    50   27   28 2
    51   27   54 1
    52   28   29 1
    53   29   30 1
    54   31   36 1
    55   31   32 1
    56   32   33 1
    57   32   55 1
    58   32   56 1
    59   33   34 1
    60   33   57 1
    61   33   58 1
    62   34   35 1
    63   35   36 1
    64   35   59 1
    65   35   60 1
    66   36   61 1
    67   36   62 1
@<TRIPOS>MOLECULE
CHEMBL594749
   58    62     0     0     0
SMALL
USER_CHARGES

@<TRIPOS>ATOM
      1 C1          3.4600   -0.8229   -0.3990 C.3       1 <0>        -0.0798
      2 C2          2.0820   -1.4135   -0.2460 C.2       1 <0>         0.1106
      3 C3          1.1101   -1.6187   -1.3159 C.ar      1 <0>        -0.1756
      4 C4          1.1155   -1.3685   -2.6910 C.ar      1 <0>         0.0063
      5 C5         -0.0023   -1.6896   -3.4462 C.ar      1 <0>        -0.1202
      6 C6         -1.1265   -2.2593   -2.8341 C.ar      1 <0>        -0.0551
      7 C7         -1.1387   -2.5060   -1.4936 C.ar      1 <0>        -0.1407
      8 C8         -0.0268   -2.1924   -0.7134 C.ar      1 <0>         0.1427
      9 N1          0.2561   -2.3171    0.6220 N.pl3     1 <0>        -0.5050
     10 H1         -0.3423   -2.6831    1.2920 H         1 <0>         0.4441
     11 N2          1.5474   -1.8374    0.8633 N.2       1 <0>        -0.2435
     12 C9         -0.0081   -1.4288   -4.9052 C.ar      1 <0>        -0.0358
     13 C10        -1.0025   -0.6380   -5.4804 C.ar      1 <0>        -0.0828
     14 C11        -0.9642   -0.4231   -6.8530 C.ar      1 <0>         0.0581
     15 C12         0.0531   -0.9961   -7.6054 C.ar      1 <0>         0.0353
     16 N3          0.9814   -1.7398   -7.0402 N.ar      1 <0>        -0.4276
     17 C13         0.9925   -1.9698   -5.7324 C.ar      1 <0>         0.1960
     18 C14         2.0580   -2.8039   -5.1440 C.2       1 <0>         0.0320
     19 C15         3.3776   -2.7823   -5.4886 C.2       1 <0>        -0.1366
     20 C16         4.0344   -3.7282   -4.6865 C.2       1 <0>        -0.2031
     21 C17         3.1105   -4.2974   -3.8814 C.2       1 <0>         0.0167
     22 N4          1.8985   -3.7352   -4.1486 N.pl3     1 <0>        -0.5420
     23 H2          1.0623   -3.9578   -3.7103 H         1 <0>         0.4137
     24 O1         -1.9143    0.3410   -7.4540 O.3       1 <0>        -0.3220
     25 C18        -1.8073    0.5157   -8.8682 C.3       1 <0>         0.0267
     26 C19        -2.9558    1.3982   -9.3613 C.3       1 <0>         0.0437
     27 H3         -3.9062    0.9667   -9.0473 H         1 <0>         0.1551
     28 C20        -2.9141    1.4835  -10.8884 C.3       1 <0>        -0.0972
     29 C21        -4.1142    2.2499  -11.3817 C.ar      1 <0>        -0.1302
     30 C22        -5.2878    1.5816  -11.6765 C.ar      1 <0>        -0.1031
     31 C23        -6.3886    2.2846  -12.1290 C.ar      1 <0>        -0.1054
     32 C24        -6.3160    3.6561  -12.2863 C.ar      1 <0>        -0.1014
     33 C25        -5.1427    4.3246  -11.9906 C.ar      1 <0>        -0.1074
     34 C26        -4.0432    3.6220  -11.5340 C.ar      1 <0>        -0.1401
     35 N5         -2.8176    2.7452   -8.7917 N.4       1 <0>        -0.6366
     36 H4          4.1750   -1.6184   -0.6093 H         1 <0>         0.0884
     37 H5          3.4596   -0.1079   -1.2217 H         1 <0>         0.0823
     38 H6          3.7422   -0.3154    0.5234 H         1 <0>         0.0833
     39 H7          1.9826   -0.9287   -3.1612 H         1 <0>         0.1327
     40 H8         -1.9926   -2.5052   -3.4306 H         1 <0>         0.1323
     41 H9         -2.0121   -2.9453   -1.0347 H         1 <0>         0.1333
     42 H10        -1.7835   -0.2036   -4.8741 H         1 <0>         0.1488
     43 H11         0.0831   -0.8292   -8.6720 H         1 <0>         0.1603
     44 H12         3.8326   -2.1537   -6.2397 H         1 <0>         0.1390
     45 H13         5.0891   -3.9600   -4.7090 H         1 <0>         0.1414
     46 H14         3.3014   -5.0654   -3.1465 H         1 <0>         0.1675
     47 H15        -0.8558    0.9921   -9.1045 H         1 <0>         0.0931
     48 H16        -1.8591   -0.4560   -9.3593 H         1 <0>         0.1143
     49 H17        -2.0032    1.9953  -11.1989 H         1 <0>         0.1040
     50 H18        -2.9272    0.4779  -11.3089 H         1 <0>         0.1255
     51 H19        -5.3445    0.5101  -11.5536 H         1 <0>         0.1307
     52 H20        -7.3053    1.7624  -12.3600 H         1 <0>         0.1334
     53 H21        -7.1758    4.2053  -12.6405 H         1 <0>         0.1329
     54 H22        -5.0858    5.3960  -12.1138 H         1 <0>         0.1326
     55 H23        -3.1277    4.1447  -11.2994 H         1 <0>         0.1229
     56 H24        -1.9378    3.1447   -9.0824 H         1 <0>         0.4325
     57 H25        -3.5750    3.3272   -9.1169 H         1 <0>         0.4364
     58 H26        -2.8452    2.6890   -7.7847 H         1 <0>         0.4423
@<TRIPOS>BOND
     1    1    2 1
     2    1   36 1
     3    1   37 1
     4    1   38 1
     5    2   11 2
     6    2    3 1
     7    3    8 ar
     8    3    4 ar
     9    4    5 ar
    10    4   39 1
    11    5    6 ar
    12    5   12 1
    13    6    7 ar
    14    6   40 1
    15    7    8 ar
    16    7   41 1
    17    8    9 1
    18    9   10 1
    19    9   11 1
    20   12   17 ar
    21   12   13 ar
    22   13   14 ar
    23   13   42 1
    24   14   15 ar
    25   14   24 1
    26   15   16 ar
    27   15   43 1
    28   16   17 ar
    29   17   18 1
    30   18   22 1
    31   18   19 2
    32   19   20 1
    33   19   44 1
    34   20   21 2
    35   20   45 1
    36   21   22 1
    37   21   46 1
    38   22   23 1
    39   24   25 1
    40   25   26 1
    41   25   47 1
    42   25   48 1
    43   26   27 1
    44   26   28 1
    45   26   35 1
    46   28   29 1
    47   28   49 1
    48   28   50 1
    49   29   34 ar
    50   29   30 ar
    51   30   31 ar
    52   30   51 1
    53   31   32 ar
    54   31   52 1
    55   32   33 ar
    56   32   53 1
    57   33   34 ar
    58   33   54 1
    59   34   55 1
    60   35   56 1
    61   35   57 1
    62   35   58 1
@<TRIPOS>MOLECULE
CHEMBL604060
   57    61     0     0     0
SMALL
USER_CHARGES

@<TRIPOS>ATOM
      1 C1         -0.0184    1.5028    0.0103 C.3       1 <0>        -0.0777
      2 C2          0.0021   -0.0041    0.0020 C.2       1 <0>         0.1038
      3 C3          0.0084   -0.8581   -1.1821 C.ar      1 <0>        -0.1796
      4 C4         -0.0022   -0.6080   -2.5573 C.ar      1 <0>        -0.0176
      5 C5          0.0081   -1.6742   -3.4435 C.ar      1 <0>        -0.1045
      6 C6          0.0290   -2.9899   -2.9630 C.ar      1 <0>        -0.0377
      7 C7          0.0390   -3.2413   -1.6233 C.ar      1 <0>        -0.1375
      8 C8          0.0294   -2.1860   -0.7124 C.ar      1 <0>         0.1452
      9 N1          0.0351   -2.1193    0.6567 N.pl3     1 <0>        -0.5035
     10 H1          0.0487   -2.8812    1.2569 H         1 <0>         0.4446
     11 N2          0.0230   -0.7772    1.0497 N.2       1 <0>        -0.2433
     12 C9         -0.0035   -1.4210   -4.9043 C.ar      1 <0>        -0.0281
     13 C10        -0.9355   -0.5479   -5.4653 C.ar      1 <0>        -0.0855
     14 C11        -0.9054   -0.3441   -6.8397 C.ar      1 <0>         0.0597
     15 C12         0.0419   -1.0087   -7.6066 C.ar      1 <0>         0.0310
     16 N3          0.9120   -1.8288   -7.0529 N.ar      1 <0>        -0.4346
     17 C13         0.9275   -2.0519   -5.7457 C.ar      1 <0>         0.1826
     18 C14         1.9296   -2.9778   -5.1698 C.2       1 <0>        -0.0915
     19 C15         2.3508   -4.1015   -5.8764 C.2       1 <0>        -0.1322
     20 C16         3.2673   -4.9225   -5.3175 C.2       1 <0>        -0.1733
     21 S1          3.5779   -4.1319   -3.7480 S.3       1 <0>         0.0684
     22 C17         2.4678   -2.7465   -3.9332 C.2       1 <0>        -0.1418
     23 O1         -1.7959    0.4982   -7.4278 O.3       1 <0>        -0.3219
     24 C18        -1.7016    0.6555   -8.8450 C.3       1 <0>         0.0271
     25 C19        -2.7768    1.6337   -9.3222 C.3       1 <0>         0.0438
     26 H2         -3.7554    1.2898   -8.9872 H         1 <0>         0.1554
     27 C20        -2.7576    1.7071  -10.8503 C.3       1 <0>        -0.0972
     28 C21        -3.8945    2.5743  -11.3260 C.ar      1 <0>        -0.1303
     29 C22        -5.1282    2.0111  -11.5938 C.ar      1 <0>        -0.1030
     30 C23        -6.1711    2.8067  -12.0301 C.ar      1 <0>        -0.1053
     31 C24        -5.9805    4.1655  -12.1981 C.ar      1 <0>        -0.1013
     32 C25        -4.7470    4.7288  -11.9294 C.ar      1 <0>        -0.1074
     33 C26        -3.7053    3.9339  -11.4890 C.ar      1 <0>        -0.1401
     34 N4         -2.5088    2.9661   -8.7646 N.4       1 <0>        -0.6365
     35 H3          1.0042    1.8801    0.0026 H         1 <0>         0.0858
     36 H4         -0.5455    1.8639   -0.8728 H         1 <0>         0.0803
     37 H5         -0.5286    1.8543    0.9071 H         1 <0>         0.0829
     38 H6         -0.0187    0.4069   -2.9262 H         1 <0>         0.1305
     39 H7          0.0369   -3.8138   -3.6613 H         1 <0>         0.1321
     40 H8          0.0543   -4.2605   -1.2666 H         1 <0>         0.1340
     41 H9         -1.6628   -0.0430   -4.8468 H         1 <0>         0.1494
     42 H10         0.0658   -0.8512   -8.6748 H         1 <0>         0.1584
     43 H11         1.9506   -4.3139   -6.8568 H         1 <0>         0.1392
     44 H12         3.7009   -5.8268   -5.7183 H         1 <0>         0.1900
     45 H13         2.2709   -1.9364   -3.2467 H         1 <0>         0.1884
     46 H14        -0.7164    1.0444   -9.1026 H         1 <0>         0.0925
     47 H15        -1.8487   -0.3103   -9.3283 H         1 <0>         0.1139
     48 H16        -1.8112    2.1346  -11.1817 H         1 <0>         0.1037
     49 H17        -2.8678    0.7045  -11.2636 H         1 <0>         0.1254
     50 H18        -5.2771    0.9495  -11.4625 H         1 <0>         0.1307
     51 H19        -7.1348    2.3665  -12.2401 H         1 <0>         0.1334
     52 H20        -6.7951    4.7869  -12.5397 H         1 <0>         0.1330
     53 H21        -4.5980    5.7903  -12.0610 H         1 <0>         0.1325
     54 H22        -2.7427    4.3746  -11.2755 H         1 <0>         0.1228
     55 H23        -3.2180    3.6113   -9.0793 H         1 <0>         0.4365
     56 H24        -2.5215    2.9178   -7.7568 H         1 <0>         0.4424
     57 H25        -1.6030    3.2845   -9.0747 H         1 <0>         0.4323
@<TRIPOS>BOND
     1    1    2 1
     2    1   35 1
     3    1   36 1
     4    1   37 1
     5    2   11 2
     6    2    3 1
     7    3    8 ar
     8    3    4 ar
     9    4    5 ar
    10    4   38 1
    11    5    6 ar
    12    5   12 1
    13    6    7 ar
    14    6   39 1
    15    7    8 ar
    16    7   40 1
    17    8    9 1
    18    9   10 1
    19    9   11 1
    20   12   17 ar
    21   12   13 ar
    22   13   14 ar
    23   13   41 1
    24   14   15 ar
    25   14   23 1
    26   15   16 ar
    27   15   42 1
    28   16   17 ar
    29   17   18 1
    30   18   22 2
    31   18   19 1
    32   19   20 2
    33   19   43 1
    34   20   21 1
    35   20   44 1
    36   21   22 1
    37   22   45 1
    38   23   24 1
    39   24   25 1
    40   24   46 1
    41   24   47 1
    42   25   26 1
    43   25   27 1
    44   25   34 1
    45   27   28 1
    46   27   48 1
    47   27   49 1
    48   28   33 ar
    49   28   29 ar
    50   29   30 ar
    51   29   50 1
    52   30   31 ar
    53   30   51 1
    54   31   32 ar
    55   31   52 1
    56   32   33 ar
    57   32   53 1
    58   33   54 1
    59   34   55 1
    60   34   56 1
    61   34   57 1
@<TRIPOS>MOLECULE
CHEMBL286737
   23    24     0     0     0
SMALL
USER_CHARGES

@<TRIPOS>ATOM
      1 C1         -0.0168    1.3849    0.0097 C.ar      1 <0>        -0.2209
      2 C2          1.1707    2.0901    0.0021 C.ar      1 <0>         0.0259
      3 C3          2.3774    1.4150   -0.0135 C.ar      1 <0>        -0.6797
      4 C4          2.3998    0.0323   -0.0211 C.ar      1 <0>         0.0258
      5 C5          1.2161   -0.6790   -0.0137 C.ar      1 <0>        -0.2208
      6 C6          0.0021   -0.0041    0.0020 C.ar      1 <0>         0.2500
      7 N1         -1.1970   -0.7204    0.0101 N.pl3     1 <0>        -0.8751
      8 S1          3.8900    2.3186   -0.0243 S.o2      1 <0>         2.6456
      9 O1          4.8717    1.4606   -0.5894 O.2       1 <0>        -1.0069
     10 O2          3.5945    3.5988   -0.5657 O.2       1 <0>        -1.0067
     11 N2          4.3264    2.5618    1.5546 N.2       1 <0>        -1.0186
     12 C7          5.4905    3.2539    1.8537 C.2       1 <0>         0.4312
     13 N3          6.3871    3.8052    1.0464 N.2       1 <0>        -0.4399
     14 N4          7.4027    4.4057    1.4922 N.2       1 <0>        -0.2335
     15 C8          7.6382    4.5240    2.7830 C.2       1 <0>        -0.0597
     16 S2          6.2105    3.6664    3.4404 S.3       1 <0>        -0.1512
     17 H1         -0.9589    1.9127    0.0260 H         1 <0>         0.1247
     18 H2          1.1567    3.1700    0.0080 H         1 <0>         0.1372
     19 H3          3.3440   -0.4918   -0.0333 H         1 <0>         0.1372
     20 H4          1.2342   -1.7588   -0.0200 H         1 <0>         0.1247
     21 H5         -2.0441   -0.2480    0.0210 H         1 <0>         0.3982
     22 H6         -1.1825   -1.6903    0.0047 H         1 <0>         0.3982
     23 H7          8.4567    5.0051    3.2979 H         1 <0>         0.2143
@<TRIPOS>BOND
     1    1    6 ar
     2    1    2 ar
     3    1   17 1
     4    2    3 ar
     5    2   18 1
     6    3    4 ar
     7    3    8 1
     8    4    5 ar
     9    4   19 1
    10    5    6 ar
    11    5   20 1
    12    6    7 1
    13    7   21 1
    14    7   22 1
    15    8    9 2
    16    8   10 2
    17    8   11 1
    18   11   12 1
    19   12   16 1
    20   12   13 2
    21   13   14 1
    22   14   15 2
    23   15   16 1
    24   15   23 1
@<TRIPOS>MOLECULE
CHEMBL1081831
   50    53     0     0     0
SMALL
USER_CHARGES

@<TRIPOS>ATOM
      1 C1         -0.0167    1.3781    0.0096 C.ar      1 <0>        -0.1414
      2 C2          1.1709    2.0855    0.0021 C.ar      1 <0>        -0.0582
      3 C3          2.3773    1.4107   -0.0130 C.ar      1 <0>        -0.1630
      4 C4          2.3960    0.0285   -0.0201 C.ar      1 <0>        -0.0559
      5 C5          1.2085   -0.6789   -0.0117 C.ar      1 <0>        -0.1023
      6 C6          0.0021   -0.0041    0.0020 C.ar      1 <0>        -0.0984
      7 C7         -1.2926   -0.7753    0.0107 C.3       1 <0>        -0.0996
      8 C8         -1.7450   -1.0285   -1.4288 C.3       1 <0>         0.0246
      9 H1         -0.9463   -1.5264   -1.9784 H         1 <0>         0.1548
     10 C9         -2.9907   -1.9168   -1.4231 C.3       1 <0>         0.1144
     11 N1         -3.4936   -2.0615   -2.7914 N.pl3     1 <0>        -0.7072
     12 C10        -4.6212   -2.8264   -3.0373 C.2       1 <0>         0.2748
     13 N2         -5.3660   -3.4847   -2.1730 N.2       1 <0>        -0.5597
     14 C11        -6.4184   -4.1746   -2.5639 C.2       1 <0>         0.0759
     15 C12        -6.6938   -4.1704   -3.9049 C.2       1 <0>        -0.1593
     16 S1         -5.3736   -3.1324   -4.5112 S.3       1 <0>         0.1294
     17 C13        -7.7854   -4.8368   -4.6456 C.ar      1 <0>        -0.0261
     18 C14        -8.7315   -5.6048   -3.9635 C.ar      1 <0>        -0.0603
     19 C15        -9.7482   -6.2248   -4.6537 C.ar      1 <0>        -0.1288
     20 C16        -9.8422   -6.0921   -6.0394 C.ar      1 <0>         0.1565
     21 C17        -8.8973   -5.3262   -6.7128 C.ar      1 <0>        -0.1351
     22 C18        -7.8816   -4.6983   -6.0326 C.ar      1 <0>        -0.0543
     23 C19        -9.2710   -5.3803   -8.1766 C.3       1 <0>        -0.1165
     24 C20       -10.5083   -6.2518   -8.2087 C.2       1 <0>         0.5278
     25 O1        -11.1455   -6.5618   -9.1931 O.2       1 <0>        -0.4914
     26 N3        -10.7681   -6.6178   -6.9424 N.am      1 <0>        -0.6605
     27 N4         -2.0599    0.2523   -2.0756 N.4       1 <0>        -0.6401
     28 C21         3.6720    2.1819   -0.0222 C.3       1 <0>         0.5036
     29 F1          4.0857    2.4144    1.2938 F         1 <0>        -0.1689
     30 F2          4.6506    1.4423   -0.6949 F         1 <0>        -0.1715
     31 F3          3.4816    3.4050   -0.6742 F         1 <0>        -0.1729
     32 H2         -0.9591    1.9053    0.0259 H         1 <0>         0.1371
     33 H3          1.1563    3.1654    0.0076 H         1 <0>         0.1470
     34 H4          3.3385   -0.4987   -0.0326 H         1 <0>         0.1478
     35 H5          1.2231   -1.7588   -0.0179 H         1 <0>         0.1451
     36 H6         -1.1443   -1.7285    0.5180 H         1 <0>         0.1325
     37 H7         -2.0551   -0.1993    0.5352 H         1 <0>         0.1102
     38 H8         -2.7351   -2.8985   -1.0242 H         1 <0>         0.1163
     39 H9         -3.7596   -1.4603   -0.7997 H         1 <0>         0.0992
     40 H10        -3.0366   -1.6214   -3.5252 H         1 <0>         0.4098
     41 H11        -7.0334   -4.7169   -1.8609 H         1 <0>         0.1800
     42 H12        -8.6651   -5.7129   -2.8910 H         1 <0>         0.1374
     43 H13       -10.4766   -6.8173   -4.1201 H         1 <0>         0.1370
     44 H14        -7.1573   -4.1032   -6.5691 H         1 <0>         0.1288
     45 H15        -9.4975   -4.3816   -8.5500 H         1 <0>         0.1276
     46 H16        -8.4691   -5.8341   -8.7589 H         1 <0>         0.1278
     47 H17       -11.5137   -7.1823   -6.6850 H         1 <0>         0.4177
     48 H18        -2.7994    0.7132   -1.5668 H         1 <0>         0.4376
     49 H19        -1.2384    0.8381   -2.0794 H         1 <0>         0.4377
     50 H20        -2.3583    0.0853   -3.0249 H         1 <0>         0.4323
@<TRIPOS>BOND
     1    1    6 ar
     2    1    2 ar
     3    1   32 1
     4    2    3 ar
     5    2   33 1
     6    3    4 ar
     7    3   28 1
     8    4    5 ar
     9    4   34 1
    10    5    6 ar
    11    5   35 1
    12    6    7 1
    13    7    8 1
    14    7   36 1
    15    7   37 1
    16    8    9 1
    17    8   10 1
    18    8   27 1
    19   10   11 1
    20   10   38 1
    21   10   39 1
    22   11   12 1
    23   11   40 1
    24   12   16 1
    25   12   13 2
    26   13   14 1
    27   14   15 2
    28   14   41 1
    29   15   16 1
    30   15   17 1
    31   17   22 ar
    32   17   18 ar
    33   18   19 ar
    34   18   42 1
    35   19   20 ar
    36   19   43 1
    37   20   26 1
    38   20   21 ar
    39   21   22 ar
    40   21   23 1
    41   22   44 1
    42   23   24 1
    43   23   45 1
    44   23   46 1
    45   24   25 2
    46   24   26 am
    47   26   47 1
    48   27   48 1
    49   27   49 1
    50   27   50 1
    51   28   29 1
    52   28   30 1
    53   28   31 1
@<TRIPOS>MOLECULE
CHEMBL607374
   61    66     0     0     0
SMALL
USER_CHARGES

@<TRIPOS>ATOM
      1 C1         -0.0184    1.5028    0.0103 C.3       1 <0>        -0.0779
      2 C2          0.0021   -0.0041    0.0020 C.2       1 <0>         0.1043
      3 C3          0.0084   -0.8581   -1.1821 C.ar      1 <0>        -0.1798
      4 C4         -0.0022   -0.6080   -2.5573 C.ar      1 <0>        -0.0150
      5 C5          0.0081   -1.6742   -3.4435 C.ar      1 <0>        -0.1086
      6 C6          0.0290   -2.9899   -2.9630 C.ar      1 <0>        -0.0417
      7 C7          0.0390   -3.2413   -1.6233 C.ar      1 <0>        -0.1371
      8 C8          0.0294   -2.1860   -0.7124 C.ar      1 <0>         0.1452
      9 N1          0.0351   -2.1193    0.6567 N.pl3     1 <0>        -0.5035
     10 H1          0.0487   -2.8812    1.2569 H         1 <0>         0.4447
     11 N2          0.0230   -0.7772    1.0497 N.2       1 <0>        -0.2433
     12 C9         -0.0035   -1.4210   -4.9043 C.ar      1 <0>        -0.0320
     13 C10        -0.9355   -0.5478   -5.4653 C.ar      1 <0>        -0.0851
     14 C11        -0.9051   -0.3436   -6.8395 C.ar      1 <0>         0.0589
     15 C12         0.0427   -1.0081   -7.6063 C.ar      1 <0>         0.0319
     16 N3          0.9125   -1.8281   -7.0523 N.ar      1 <0>        -0.4335
     17 C13         0.9273   -2.0517   -5.7455 C.ar      1 <0>         0.2003
     18 C14         1.9297   -2.9782   -5.1692 C.2       1 <0>        -0.1596
     19 C15         2.4700   -4.1950   -5.7872 C.2       1 <0>        -0.1833
     20 C16         3.3423   -4.7046   -4.9018 C.2       1 <0>        -0.0337
     21 O1          3.3771   -3.9146   -3.8179 O.3       1 <0>        -0.1726
     22 C17         2.5441   -2.8742   -3.9610 C.2       1 <0>         0.0148
     23 O2         -1.7953    0.4986   -7.4278 O.3       1 <0>        -0.3219
     24 C18        -1.7005    0.6562   -8.8449 C.3       1 <0>         0.0260
     25 C19        -2.7757    1.6345   -9.3223 C.3       1 <0>         0.0429
     26 H2         -3.7544    1.2903   -8.9878 H         1 <0>         0.1538
     27 C20        -2.7559    1.7081  -10.8504 C.3       1 <0>        -0.0570
     28 C21        -3.8928    2.5754  -11.3263 C.2       1 <0>        -0.2298
     29 C22        -5.1084    2.1574  -11.7118 C.2       1 <0>         0.1067
     30 N4         -5.8766    3.2300  -12.0771 N.pl3     1 <0>        -0.5816
     31 H3         -6.7929    3.1781  -12.3911 H         1 <0>         0.4291
     32 C23        -5.1550    4.3936  -11.9316 C.ar      1 <0>         0.1276
     33 C24        -3.8826    4.0355  -11.4497 C.ar      1 <0>        -0.1296
     34 C25        -2.9281    5.0230  -11.2002 C.ar      1 <0>        -0.0808
     35 C26        -3.2352    6.3358  -11.4224 C.ar      1 <0>        -0.1532
     36 C27        -4.4916    6.6963  -11.8949 C.ar      1 <0>         0.1309
     37 C28        -5.4467    5.7350  -12.1553 C.ar      1 <0>        -0.1528
     38 F1         -4.7779    7.9993  -12.1080 F         1 <0>        -0.1259
     39 N5         -2.5081    2.9668   -8.7643 N.4       1 <0>        -0.6369
     40 H4          1.0042    1.8801    0.0026 H         1 <0>         0.0861
     41 H5         -0.5455    1.8639   -0.8728 H         1 <0>         0.0806
     42 H6         -0.5286    1.8543    0.9071 H         1 <0>         0.0830
     43 H7         -0.0187    0.4068   -2.9262 H         1 <0>         0.1312
     44 H8          0.0369   -3.8138   -3.6613 H         1 <0>         0.1335
     45 H9          0.0543   -4.2606   -1.2666 H         1 <0>         0.1337
     46 H10        -1.6631   -0.0432   -4.8469 H         1 <0>         0.1492
     47 H11         0.0672   -0.8505   -8.6745 H         1 <0>         0.1591
     48 H12         2.2173   -4.5988   -6.7565 H         1 <0>         0.1551
     49 H13         3.9220   -5.6053   -5.0401 H         1 <0>         0.2077
     50 H14         2.3861   -2.0877   -3.2379 H         1 <0>         0.2036
     51 H15        -0.7153    1.0452   -9.1021 H         1 <0>         0.0920
     52 H16        -1.8474   -0.3095   -9.3285 H         1 <0>         0.1137
     53 H17        -1.8095    2.1358  -11.1813 H         1 <0>         0.1015
     54 H18        -2.8659    0.7056  -11.2639 H         1 <0>         0.1237
     55 H19        -5.4325    1.1273  -11.7313 H         1 <0>         0.1826
     56 H20        -1.9500    4.7503  -10.8323 H         1 <0>         0.1269
     57 H21        -2.4960    7.0992  -11.2290 H         1 <0>         0.1454
     58 H22        -6.4208    6.0241  -12.5214 H         1 <0>         0.1429
     59 H23        -3.2171    3.6119   -9.0792 H         1 <0>         0.4372
     60 H24        -2.5211    2.9182   -7.7566 H         1 <0>         0.4404
     61 H25        -1.6021    3.2853   -9.0740 H         1 <0>         0.4301
@<TRIPOS>BOND
     1    1    2 1
     2    1   40 1
     3    1   41 1
     4    1   42 1
     5    2   11 2
     6    2    3 1
     7    3    8 ar
     8    3    4 ar
     9    4    5 ar
    10    4   43 1
    11    5    6 ar
    12    5   12 1
    13    6    7 ar
    14    6   44 1
    15    7    8 ar
    16    7   45 1
    17    8    9 1
    18    9   10 1
    19    9   11 1
    20   12   17 ar
    21   12   13 ar
    22   13   14 ar
    23   13   46 1
    24   14   15 ar
    25   14   23 1
    26   15   16 ar
    27   15   47 1
    28   16   17 ar
    29   17   18 1
    30   18   22 2
    31   18   19 1
    32   19   20 2
    33   19   48 1
    34   20   21 1
    35   20   49 1
    36   21   22 1
    37   22   50 1
    38   23   24 1
    39   24   25 1
    40   24   51 1
    41   24   52 1
    42   25   26 1
    43   25   27 1
    44   25   39 1
    45   27   28 1
    46   27   53 1
    47   27   54 1
    48   28   33 1
    49   28   29 2
    50   29   30 1
    51   29   55 1
    52   30   31 1
    53   30   32 1
    54   32   37 ar
    55   32   33 ar
    56   33   34 ar
    57   34   35 ar
    58   34   56 1
    59   35   36 ar
    60   35   57 1
    61   36   37 ar
    62   36   38 1
    63   37   58 1
    64   39   59 1
    65   39   60 1
    66   39   61 1
@<TRIPOS>MOLECULE
CHEMBL1081830
   49    52     0     0     0
SMALL
USER_CHARGES

@<TRIPOS>ATOM
      1 C1         -0.0167    1.3781    0.0096 C.ar      1 <0>        -0.1413
      2 C2          1.1709    2.0855    0.0021 C.ar      1 <0>        -0.0582
      3 C3          2.3773    1.4107   -0.0130 C.ar      1 <0>        -0.1629
      4 C4          2.3960    0.0285   -0.0201 C.ar      1 <0>        -0.0559
      5 C5          1.2085   -0.6789   -0.0117 C.ar      1 <0>        -0.1023
      6 C6          0.0021   -0.0041    0.0020 C.ar      1 <0>        -0.0986
      7 C7         -1.2926   -0.7753    0.0107 C.3       1 <0>        -0.0995
      8 C8         -1.7450   -1.0285   -1.4288 C.3       1 <0>         0.0244
      9 H1         -0.9463   -1.5264   -1.9784 H         1 <0>         0.1550
     10 C9         -2.9907   -1.9168   -1.4231 C.3       1 <0>         0.1132
     11 N1         -3.4936   -2.0615   -2.7914 N.pl3     1 <0>        -0.7054
     12 C10        -4.6208   -2.8261   -3.0372 C.2       1 <0>         0.2813
     13 N2         -5.3659   -3.4846   -2.1727 N.2       1 <0>        -0.5627
     14 C11        -6.4178   -4.1742   -2.5632 C.2       1 <0>         0.0969
     15 C12        -6.6934   -4.1702   -3.9047 C.2       1 <0>        -0.1802
     16 S1         -5.3732   -3.1321   -4.5111 S.3       1 <0>         0.1396
     17 C13        -7.7850   -4.8358   -4.6449 C.ar      1 <0>         0.0533
     18 C14        -8.7321   -5.6050   -3.9535 C.ar      1 <0>        -0.1177
     19 C15        -9.7427   -6.2242   -4.6216 C.ar      1 <0>        -0.0184
     20 C16        -9.8473   -6.0980   -6.0151 C.ar      1 <0>        -0.0134
     21 C17        -8.9005   -5.3274   -6.7140 C.ar      1 <0>         0.1204
     22 C18        -7.8749   -4.6939   -6.0256 C.ar      1 <0>        -0.1043
     23 N3         -9.2607   -5.3917   -8.0400 N.pl3     1 <0>        -0.2495
     24 N4        -10.4086   -6.1954   -8.1016 N.2       1 <0>        -0.0274
     25 N5        -10.7214   -6.5870   -6.9171 N.2       1 <0>        -0.1999
     26 N6         -8.6258   -4.7909   -9.0898 N.3       1 <0>        -0.5576
     27 N7         -2.0599    0.2523   -2.0756 N.4       1 <0>        -0.6403
     28 C19         3.6720    2.1819   -0.0222 C.3       1 <0>         0.5036
     29 F1          4.0857    2.4144    1.2938 F         1 <0>        -0.1688
     30 F2          4.6506    1.4423   -0.6949 F         1 <0>        -0.1715
     31 F3          3.4816    3.4050   -0.6742 F         1 <0>        -0.1729
     32 H2         -0.9591    1.9053    0.0259 H         1 <0>         0.1371
     33 H3          1.1563    3.1654    0.0076 H         1 <0>         0.1471
     34 H4          3.3385   -0.4987   -0.0326 H         1 <0>         0.1478
     35 H5          1.2231   -1.7588   -0.0179 H         1 <0>         0.1451
     36 H6         -1.1443   -1.7285    0.5180 H         1 <0>         0.1328
     37 H7         -2.0551   -0.1993    0.5352 H         1 <0>         0.1105
     38 H8         -2.7351   -2.8985   -1.0242 H         1 <0>         0.1175
     39 H9         -3.7596   -1.4603   -0.7997 H         1 <0>         0.1005
     40 H10        -3.0366   -1.6214   -3.5252 H         1 <0>         0.4106
     41 H11        -7.0327   -4.7165   -1.8602 H         1 <0>         0.1843
     42 H12        -8.6585   -5.7071   -2.8808 H         1 <0>         0.1440
     43 H13       -10.4657   -6.8145   -4.0783 H         1 <0>         0.1503
     44 H14        -7.1492   -4.0980   -6.5591 H         1 <0>         0.1354
     45 H15        -7.9170   -5.3953   -9.4775 H         1 <0>         0.3654
     46 H16        -9.2865   -4.5079   -9.7979 H         1 <0>         0.3845
     47 H17        -1.2384    0.8381   -2.0794 H         1 <0>         0.4380
     48 H18        -2.3583    0.0853   -3.0249 H         1 <0>         0.4321
     49 H19        -2.7994    0.7132   -1.5668 H         1 <0>         0.4379
@<TRIPOS>BOND
     1    1    6 ar
     2    1    2 ar
     3    1   32 1
     4    2    3 ar
     5    2   33 1
     6    3    4 ar
     7    3   28 1
     8    4    5 ar
     9    4   34 1
    10    5    6 ar
    11    5   35 1
    12    6    7 1
    13    7    8 1
    14    7   36 1
    15    7   37 1
    16    8    9 1
    17    8   10 1
    18    8   27 1
    19   10   11 1
    20   10   38 1
    21   10   39 1
    22   11   12 1
    23   11   40 1
    24   12   16 1
    25   12   13 2
    26   13   14 1
    27   14   15 2
    28   14   41 1
    29   15   16 1
    30   15   17 1
    31   17   22 ar
    32   17   18 ar
    33   18   19 ar
    34   18   42 1
    35   19   20 ar
    36   19   43 1
    37   20   25 1
    38   20   21 ar
    39   21   22 ar
    40   21   23 1
    41   22   44 1
    42   23   24 1
    43   23   26 1
    44   24   25 2
    45   26   45 1
    46   26   46 1
    47   27   47 1
    48   27   48 1
    49   27   49 1
    50   28   29 1
    51   28   30 1
    52   28   31 1
@<TRIPOS>MOLECULE
CHEMBL1081830
   50    53     0     0     0
SMALL
USER_CHARGES

@<TRIPOS>ATOM
      1 C1         -0.0167    1.3781    0.0096 C.ar      1 <0>        -0.1414
      2 C2          1.1709    2.0855    0.0021 C.ar      1 <0>        -0.0575
      3 C3          2.3773    1.4107   -0.0130 C.ar      1 <0>        -0.1598
      4 C4          2.3960    0.0285   -0.0201 C.ar      1 <0>        -0.0553
      5 C5          1.2085   -0.6789   -0.0117 C.ar      1 <0>        -0.1021
      6 C6          0.0021   -0.0041    0.0020 C.ar      1 <0>        -0.1027
      7 C7         -1.2926   -0.7753    0.0107 C.3       1 <0>        -0.0986
      8 C8         -1.7450   -1.0285   -1.4288 C.3       1 <0>         0.0239
      9 H1         -0.9463   -1.5264   -1.9784 H         1 <0>         0.1567
     10 C9         -2.9907   -1.9168   -1.4231 C.3       1 <0>         0.1084
     11 N1         -3.4936   -2.0615   -2.7914 N.pl3     1 <0>        -0.6972
     12 C10        -4.6208   -2.8261   -3.0372 C.2       1 <0>         0.3133
     13 N2         -5.3659   -3.4846   -2.1727 N.2       1 <0>        -0.5707
     14 C11        -6.4178   -4.1742   -2.5632 C.2       1 <0>         0.1466
     15 C12        -6.6934   -4.1702   -3.9047 C.2       1 <0>        -0.2467
     16 S1         -5.3732   -3.1321   -4.5111 S.3       1 <0>         0.1612
     17 C13        -7.7850   -4.8358   -4.6449 C.ar      1 <0>         0.1115
     18 C14        -8.7321   -5.6050   -3.9535 C.ar      1 <0>        -0.0632
     19 C15        -9.7427   -6.2242   -4.6216 C.ar      1 <0>        -0.0479
     20 C16        -9.8473   -6.0980   -6.0151 C.ar      1 <0>         0.0311
     21 C17        -8.9005   -5.3274   -6.7140 C.ar      1 <0>         0.1550
     22 C18        -7.8749   -4.6939   -6.0256 C.ar      1 <0>        -0.1050
     23 N3         -9.2607   -5.3917   -8.0400 N.pl3     1 <0>        -0.1434
     24 N4        -10.4086   -6.1954   -8.1016 N.2       1 <0>         0.0476
     25 N5        -10.7214   -6.5870   -6.9171 N.pl3     1 <0>        -0.2560
     26 N6         -8.6258   -4.7909   -9.0898 N.3       1 <0>        -0.5241
     27 N7         -2.0599    0.2523   -2.0756 N.4       1 <0>        -0.6410
     28 C19         3.6720    2.1819   -0.0222 C.3       1 <0>         0.5030
     29 F1          4.0857    2.4144    1.2938 F         1 <0>        -0.1676
     30 F2          4.6506    1.4423   -0.6949 F         1 <0>        -0.1709
     31 F3          3.4816    3.4050   -0.6742 F         1 <0>        -0.1723
     32 H2         -0.9591    1.9053    0.0259 H         1 <0>         0.1368
     33 H3          1.1563    3.1654    0.0076 H         1 <0>         0.1481
     34 H4          3.3385   -0.4987   -0.0326 H         1 <0>         0.1489
     35 H5          1.2231   -1.7588   -0.0179 H         1 <0>         0.1448
     36 H6         -1.1443   -1.7285    0.5180 H         1 <0>         0.1333
     37 H7         -2.0551   -0.1993    0.5352 H         1 <0>         0.1110
     38 H8         -2.7351   -2.8985   -1.0242 H         1 <0>         0.1226
     39 H9         -3.7596   -1.4603   -0.7997 H         1 <0>         0.1057
     40 H10        -3.0366   -1.6214   -3.5252 H         1 <0>         0.4151
     41 H11        -7.0327   -4.7165   -1.8602 H         1 <0>         0.1887
     42 H12        -8.6585   -5.7071   -2.8808 H         1 <0>         0.1694
     43 H13       -10.4657   -6.8145   -4.0783 H         1 <0>         0.1743
     44 H14        -7.1492   -4.0980   -6.5591 H         1 <0>         0.1621
     45 H15        -7.9170   -5.3953   -9.4775 H         1 <0>         0.3961
     46 H16        -9.2865   -4.5079   -9.7979 H         1 <0>         0.4074
     47 H17        -2.3583    0.0853   -3.0249 H         1 <0>         0.4302
     48 H18        -2.7994    0.7132   -1.5668 H         1 <0>         0.4384
     49 H19        -1.2384    0.8381   -2.0794 H         1 <0>         0.4412
     50 H20       -11.4789   -7.1539   -6.7033 H         1 <0>         0.4914
@<TRIPOS>BOND
     1    1    6 ar
     2    1    2 ar
     3    1   32 1
     4    2    3 ar
     5    2   33 1
     6    3    4 ar
     7    3   28 1
     8    4    5 ar
     9    4   34 1
    10    5    6 ar
    11    5   35 1
    12    6    7 1
    13    7    8 1
    14    7   36 1
    15    7   37 1
    16    8    9 1
    17    8   10 1
    18    8   27 1
    19   10   11 1
    20   10   38 1
    21   10   39 1
    22   11   12 1
    23   11   40 1
    24   12   16 1
    25   12   13 2
    26   13   14 1
    27   14   15 2
    28   14   41 1
    29   15   16 1
    30   15   17 1
    31   17   22 ar
    32   17   18 ar
    33   18   19 ar
    34   18   42 1
    35   19   20 ar
    36   19   43 1
    37   20   25 1
    38   20   21 ar
    39   21   22 ar
    40   21   23 1
    41   22   44 1
    42   23   24 1
    43   23   26 1
    44   24   25 2
    45   25   50 1
    46   26   45 1
    47   26   46 1
    48   27   47 1
    49   27   48 1
    50   27   49 1
    51   28   29 1
    52   28   30 1
    53   28   31 1
@<TRIPOS>MOLECULE
CHEMBL378759
   54    58     0     0     0
SMALL
USER_CHARGES

@<TRIPOS>ATOM
      1 C1         -0.0184    1.5028    0.0103 C.3       1 <0>        -0.0804
      2 C2          0.0021   -0.0041    0.0020 C.2       1 <0>         0.1081
      3 C3          0.0084   -0.8581   -1.1820 C.ar      1 <0>        -0.1755
      4 C4         -0.0022   -0.6082   -2.5573 C.ar      1 <0>        -0.0107
      5 C5          0.0081   -1.6738   -3.4431 C.ar      1 <0>        -0.1041
      6 C6          0.0285   -2.9890   -2.9631 C.ar      1 <0>        -0.0545
      7 C7          0.0385   -3.2410   -1.6234 C.ar      1 <0>        -0.1357
      8 C8          0.0294   -2.1860   -0.7124 C.ar      1 <0>         0.1433
      9 N1          0.0351   -2.1193    0.6566 N.pl3     1 <0>        -0.5045
     10 H1          0.0488   -2.8812    1.2569 H         1 <0>         0.4443
     11 N2          0.0230   -0.7772    1.0497 N.2       1 <0>        -0.2435
     12 C9         -0.0030   -1.4201   -4.9053 C.ar      1 <0>        -0.0463
     13 C10         0.0014   -2.4844   -5.8090 C.ar      1 <0>        -0.0499
     14 C11        -0.0094   -2.1930   -7.1694 C.ar      1 <0>        -0.1385
     15 C12        -0.0241   -0.8633   -7.5767 C.ar      1 <0>         0.0873
     16 N3         -0.0278    0.1152   -6.6938 N.ar      1 <0>        -0.4539
     17 C13        -0.0238   -0.1163   -5.3967 C.ar      1 <0>         0.1104
     18 S1         -0.0040   -3.4914   -8.3606 S.3       1 <0>        -0.1047
     19 C14        -0.0217   -2.6250   -9.9542 C.3       1 <0>        -0.1574
     20 C15        -0.0185   -3.6488  -11.0913 C.3       1 <0>         0.0583
     21 H2          0.8305   -4.3218  -10.9719 H         1 <0>         0.1529
     22 C16         0.0923   -2.9209  -12.4325 C.3       1 <0>        -0.0525
     23 C17         0.2190   -3.9313  -13.5434 C.2       1 <0>        -0.2377
     24 C18         1.3607   -4.3782  -14.0900 C.2       1 <0>         0.1033
     25 N4          1.0825   -5.2896  -15.0720 N.pl3     1 <0>        -0.5846
     26 H3          1.7461   -5.7500  -15.6091 H         1 <0>         0.4263
     27 C19        -0.2797   -5.4557  -15.1841 C.ar      1 <0>         0.0988
     28 C20        -0.8802   -4.6169  -14.2272 C.ar      1 <0>        -0.1173
     29 C21        -2.2705   -4.5812  -14.1068 C.ar      1 <0>        -0.1141
     30 C22        -3.0421   -5.3651  -14.9178 C.ar      1 <0>        -0.1193
     31 C23        -2.4545   -6.1972  -15.8605 C.ar      1 <0>        -0.0933
     32 C24        -1.0845   -6.2411  -16.0026 C.ar      1 <0>        -0.1112
     33 N5         -1.2662   -4.4234  -11.0562 N.4       1 <0>        -0.6380
     34 H4          1.0042    1.8801    0.0026 H         1 <0>         0.0876
     35 H5         -0.5455    1.8639   -0.8728 H         1 <0>         0.0840
     36 H6         -0.5286    1.8543    0.9071 H         1 <0>         0.0842
     37 H7         -0.0187    0.4067   -2.9264 H         1 <0>         0.1358
     38 H8          0.0360   -3.8126   -3.6617 H         1 <0>         0.1311
     39 H9          0.0535   -4.2604   -1.2670 H         1 <0>         0.1335
     40 H10         0.0132   -3.5068   -5.4613 H         1 <0>         0.1457
     41 H11        -0.0322   -0.6293   -8.6310 H         1 <0>         0.1533
     42 H12        -0.0318    0.7142   -4.7063 H         1 <0>         0.1680
     43 H13        -0.9180   -2.0086  -10.0227 H         1 <0>         0.1169
     44 H14         0.8619   -1.9916  -10.0332 H         1 <0>         0.1387
     45 H15        -0.7998   -2.3154  -12.5921 H         1 <0>         0.0993
     46 H16         0.9719   -2.2771  -12.4249 H         1 <0>         0.1212
     47 H17         2.3521   -4.0645  -13.7981 H         1 <0>         0.1790
     48 H18        -2.7347   -3.9367  -13.3750 H         1 <0>         0.1149
     49 H19        -4.1176   -5.3371  -14.8243 H         1 <0>         0.1311
     50 H20        -3.0775   -6.8113  -16.4938 H         1 <0>         0.1351
     51 H21        -0.6368   -6.8928  -16.7383 H         1 <0>         0.1292
     52 H22        -2.0521   -3.8003  -11.1667 H         1 <0>         0.4318
     53 H23        -1.2642   -5.0985  -11.8060 H         1 <0>         0.4394
     54 H24        -1.3393   -4.9034  -10.1717 H         1 <0>         0.4347
@<TRIPOS>BOND
     1    1    2 1
     2    1   34 1
     3    1   35 1
     4    1   36 1
     5    2   11 2
     6    2    3 1
     7    3    8 ar
     8    3    4 ar
     9    4    5 ar
    10    4   37 1
    11    5    6 ar
    12    5   12 1
    13    6    7 ar
    14    6   38 1
    15    7    8 ar
    16    7   39 1
    17    8    9 1
    18    9   10 1
    19    9   11 1
    20   12   17 ar
    21   12   13 ar
    22   13   14 ar
    23   13   40 1
    24   14   15 ar
    25   14   18 1
    26   15   16 ar
    27   15   41 1
    28   16   17 ar
    29   17   42 1
    30   18   19 1
    31   19   20 1
    32   19   43 1
    33   19   44 1
    34   20   21 1
    35   20   22 1
    36   20   33 1
    37   22   23 1
    38   22   45 1
    39   22   46 1
    40   23   28 1
    41   23   24 2
    42   24   25 1
    43   24   47 1
    44   25   26 1
    45   25   27 1
    46   27   32 ar
    47   27   28 ar
    48   28   29 ar
    49   29   30 ar
    50   29   48 1
    51   30   31 ar
    52   30   49 1
    53   31   32 ar
    54   31   50 1
    55   32   51 1
    56   33   52 1
    57   33   53 1
    58   33   54 1
@<TRIPOS>MOLECULE
CHEMBL404553
   72    78     0     0     0
SMALL
USER_CHARGES

@<TRIPOS>ATOM
      1 C1         -0.0225    1.8097    0.0120 C.3       1 <0>        -0.1491
      2 S1          0.0021   -0.0041    0.0020 S.3       1 <0>         0.0310
      3 C2          0.8484   -0.4107   -1.4889 C.ar      1 <0>         0.3273
      4 N1          1.2837    0.5796   -2.2667 N.ar      1 <0>        -0.5275
      5 C3          1.9229    0.3379   -3.3923 C.ar      1 <0>         0.2401
      6 C4          2.1419   -1.0009   -3.7658 C.ar      1 <0>        -0.2287
      7 C5          2.8151   -1.3392   -4.9495 C.ar      1 <0>         0.0092
      8 C6          2.9869   -2.6849   -5.2387 C.ar      1 <0>        -0.1097
      9 C7          2.4852   -3.6562   -4.3441 C.ar      1 <0>         0.2462
     10 N2          1.8548   -3.3109   -3.2368 N.ar      1 <0>        -0.4554
     11 C8          1.6645   -2.0319   -2.9134 C.ar      1 <0>         0.3666
     12 N3          1.0298   -1.6838   -1.7865 N.ar      1 <0>        -0.4845
     13 C9          2.6699   -5.0924   -4.6553 C.ar      1 <0>        -0.0190
     14 C10         2.6327   -5.5326   -5.9783 C.ar      1 <0>        -0.0762
     15 C11         2.8060   -6.8718   -6.2619 C.ar      1 <0>        -0.1020
     16 C12         3.0157   -7.7773   -5.2372 C.ar      1 <0>        -0.1475
     17 C13         3.0532   -7.3469   -3.9229 C.ar      1 <0>        -0.0965
     18 C14         2.8875   -6.0093   -3.6271 C.ar      1 <0>        -0.0684
     19 C15         3.2037   -9.2386   -5.5539 C.3       1 <0>         0.0430
     20 N4          4.6315   -9.5150   -5.7612 N.4       1 <0>        -0.3858
     21 C16         5.1019   -8.7885   -6.9467 C.3       1 <0>        -0.0109
     22 C17         6.6062   -9.0081   -7.1205 C.3       1 <0>        -0.1445
     23 C18         6.8814  -10.5045   -7.2944 C.3       1 <0>        -0.0101
     24 C19         6.3204  -11.2604   -6.0865 C.3       1 <0>        -0.1464
     25 C20         4.8266  -10.9574   -5.9509 C.3       1 <0>        -0.0021
     26 C21         8.3676  -10.7360   -7.3879 C.2       1 <0>         0.2808
     27 N5          8.9927  -11.2695   -8.3984 N.2       1 <0>        -0.5163
     28 C22        10.3128  -11.3247   -8.1463 C.2       1 <0>         0.3101
     29 N6         10.5335  -10.8193   -6.9579 N.2       1 <0>        -0.3169
     30 O1          9.2691  -10.4227   -6.4483 O.3       1 <0>        -0.0980
     31 C23        11.3470  -11.8681   -9.0617 C.ar      1 <0>        -0.1073
     32 C24        12.6932  -11.8777   -8.6863 C.ar      1 <0>        -0.0297
     33 C25        13.6191  -12.3952   -9.5757 C.ar      1 <0>        -0.1724
     34 C26        13.1863  -12.8818  -10.7959 C.ar      1 <0>         0.1338
     35 N7         11.9086  -12.8590  -11.1224 N.ar      1 <0>        -0.4821
     36 C27        10.9909  -12.3820  -10.3063 C.ar      1 <0>         0.1605
     37 C28         3.6902   -3.1001   -6.4757 C.ar      1 <0>        -0.0497
     38 C29         4.7183   -4.0397   -6.4143 C.ar      1 <0>        -0.1000
     39 C30         5.3692   -4.4227   -7.5693 C.ar      1 <0>        -0.1219
     40 C31         5.0036   -3.8759   -8.7863 C.ar      1 <0>        -0.1086
     41 C32         3.9842   -2.9431   -8.8533 C.ar      1 <0>        -0.1110
     42 C33         3.3223   -2.5567   -7.7057 C.ar      1 <0>        -0.1025
     43 H1          1.0001    2.1870    0.0043 H         1 <0>         0.0934
     44 H2         -0.5497    2.1708   -0.8711 H         1 <0>         0.0935
     45 H3         -0.5327    2.1613    0.9088 H         1 <0>         0.1179
     46 H4          2.2708    1.1489   -4.0150 H         1 <0>         0.1881
     47 H5          3.1879   -0.5750   -5.6154 H         1 <0>         0.1577
     48 H6          2.4684   -4.8268   -6.7790 H         1 <0>         0.1447
     49 H7          2.7774   -7.2139   -7.2859 H         1 <0>         0.1367
     50 H8          3.2169   -8.0585   -3.1272 H         1 <0>         0.1375
     51 H9          2.9213   -5.6738   -2.6011 H         1 <0>         0.1439
     52 H10         2.8338   -9.8407   -4.7239 H         1 <0>         0.1414
     53 H11         2.6501   -9.4884   -6.4590 H         1 <0>         0.1396
     54 H12         4.5773   -9.1553   -7.8289 H         1 <0>         0.1374
     55 H13         4.9024   -7.7241   -6.8228 H         1 <0>         0.1417
     56 H14         6.9532   -8.4693   -8.0023 H         1 <0>         0.1231
     57 H15         7.1319   -8.6413   -6.2389 H         1 <0>         0.1013
     58 H16         6.3980  -10.8607   -8.2040 H         1 <0>         0.1387
     59 H17         6.4630  -12.3316   -6.2291 H         1 <0>         0.1242
     60 H18         6.8401  -10.9404   -5.1834 H         1 <0>         0.1018
     61 H19         4.4239  -11.4942   -5.0920 H         1 <0>         0.1417
     62 H20         4.3079  -11.2780   -6.8544 H         1 <0>         0.1376
     63 H21        13.0033  -11.4907   -7.7269 H         1 <0>         0.1449
     64 H22        14.6681  -12.4185   -9.3197 H         1 <0>         0.1509
     65 H23        13.9058  -13.2863  -11.4924 H         1 <0>         0.1698
     66 H24         9.9537  -12.3849  -10.6072 H         1 <0>         0.1702
     67 H25         5.0050   -4.4667   -5.4647 H         1 <0>         0.1208
     68 H26         6.1658   -5.1505   -7.5230 H         1 <0>         0.1225
     69 H27         5.5163   -4.1781   -9.6875 H         1 <0>         0.1266
     70 H28         3.7033   -2.5193   -9.8062 H         1 <0>         0.1306
     71 H29         2.5236   -1.8318   -7.7599 H         1 <0>         0.1285
     72 H30         5.1529   -9.2096   -4.9532 H         1 <0>         0.4248
@<TRIPOS>BOND
     1    1    2 1
     2    1   43 1
     3    1   44 1
     4    1   45 1
     5    2    3 1
     6    3   12 ar
     7    3    4 ar
     8    4    5 ar
     9    5    6 ar
    10    5   46 1
    11    6   11 ar
    12    6    7 ar
    13    7    8 ar
    14    7   47 1
    15    8    9 ar
    16    8   37 1
    17    9   10 ar
    18    9   13 1
    19   10   11 ar
    20   11   12 ar
    21   13   18 ar
    22   13   14 ar
    23   14   15 ar
    24   14   48 1
    25   15   16 ar
    26   15   49 1
    27   16   17 ar
    28   16   19 1
    29   17   18 ar
    30   17   50 1
    31   18   51 1
    32   19   20 1
    33   19   52 1
    34   19   53 1
    35   20   25 1
    36   20   21 1
    37   20   72 1
    38   21   22 1
    39   21   54 1
    40   21   55 1
    41   22   23 1
    42   22   56 1
    43   22   57 1
    44   23   24 1
    45   23   26 1
    46   23   58 1
    47   24   25 1
    48   24   59 1
    49   24   60 1
    50   25   61 1
    51   25   62 1
    52   26   30 1
    53   26   27 2
    54   27   28 1
    55   28   29 2
    56   28   31 1
    57   29   30 1
    58   31   36 ar
    59   31   32 ar
    60   32   33 ar
    61   32   63 1
    62   33   34 ar
    63   33   64 1
    64   34   35 ar
    65   34   65 1
    66   35   36 ar
    67   36   66 1
    68   37   42 ar
    69   37   38 ar
    70   38   39 ar
    71   38   67 1
    72   39   40 ar
    73   39   68 1
    74   40   41 ar
    75   40   69 1
    76   41   42 ar
    77   41   70 1
    78   42   71 1
@<TRIPOS>MOLECULE
CHEMBL247797
   53    55     0     0     0
SMALL
USER_CHARGES

@<TRIPOS>ATOM
      1 C1          2.0385   -1.2772   -0.6519 C.3       1 <0>         0.1054
      2 N1          0.6767   -0.8151   -0.3723 N.am      1 <0>        -0.7469
      3 C2         -0.3435   -1.6956   -0.3554 C.2       1 <0>         0.6904
      4 O1         -0.1337   -2.8734   -0.5721 O.2       1 <0>        -0.5223
      5 N2         -1.5963   -1.2705   -0.0982 N.am      1 <0>        -0.6700
      6 C3         -2.6657   -2.1605   -0.1841 C.ar      1 <0>         0.3922
      7 C4         -3.9655   -1.6929   -0.0252 C.ar      1 <0>        -0.2106
      8 C5         -5.0177   -2.5870   -0.1129 C.ar      1 <0>        -0.0201
      9 C6         -4.7325   -3.9236   -0.3575 C.ar      1 <0>        -0.2056
     10 C7         -3.4177   -4.3183   -0.5049 C.ar      1 <0>         0.1628
     11 N3         -2.4349   -3.4419   -0.4215 N.ar      1 <0>        -0.4728
     12 C8         -5.8465   -4.9333   -0.4605 C.3       1 <0>         0.1601
     13 N4         -6.2911   -5.0296   -1.8530 N.pl3     1 <0>        -0.6997
     14 C9         -7.3840   -5.8080   -2.1763 C.2       1 <0>         0.4451
     15 C10        -7.8631   -6.0706   -3.4578 C.2       1 <0>        -0.3779
     16 C11        -8.9935   -6.9089   -3.3122 C.2       1 <0>         0.1134
     17 N5         -9.1752   -7.1296   -2.0410 N.2       1 <0>        -0.2958
     18 N6         -8.1856   -6.4622   -1.3114 N.pl3     1 <0>        -0.3953
     19 C12        -8.0453   -6.4704    0.1469 C.3       1 <0>         0.0850
     20 C13        -7.3022   -5.5720   -4.7191 C.2       1 <0>         0.6082
     21 O2         -6.3206   -4.8528   -4.7063 O.2       1 <0>        -0.5445
     22 N7         -7.8744   -5.9105   -5.8915 N.am      1 <0>        -0.6709
     23 C14        -7.2964   -5.4958   -7.0986 C.ar      1 <0>         0.1699
     24 C15        -8.1007   -5.2383   -8.2010 C.ar      1 <0>        -0.1311
     25 C16        -7.5316   -4.8302   -9.3906 C.ar      1 <0>        -0.0594
     26 C17        -6.1539   -4.6767   -9.4848 C.ar      1 <0>        -0.1273
     27 C18        -5.3495   -4.9341   -8.3815 C.ar      1 <0>        -0.0986
     28 C19        -5.9199   -5.3371   -7.1907 C.ar      1 <0>        -0.1009
     29 S1         -5.4269   -4.1564  -11.0032 S.3       1 <0>        -0.0273
     30 C20        -3.6498   -4.1025  -10.6431 C.3       1 <0>         0.4519
     31 F1         -3.2132   -5.3747  -10.2583 F         1 <0>        -0.1630
     32 F2         -2.9543   -3.6970  -11.7873 F         1 <0>        -0.1456
     33 F3         -3.4115   -3.1942   -9.6061 F         1 <0>        -0.1628
     34 H1          2.7230   -0.4294   -0.6229 H         1 <0>         0.0789
     35 H2          2.3351   -2.0094    0.0991 H         1 <0>         0.0611
     36 H3          2.0707   -1.7365   -1.6398 H         1 <0>         0.0612
     37 H4          0.5093    0.1246   -0.1994 H         1 <0>         0.3981
     38 H5         -1.7539   -0.3452    0.1467 H         1 <0>         0.4150
     39 H6         -4.1513   -0.6460    0.1644 H         1 <0>         0.1400
     40 H7         -6.0377   -2.2528    0.0066 H         1 <0>         0.1402
     41 H8         -3.1911   -5.3570   -0.6949 H         1 <0>         0.1601
     42 H9         -5.4871   -5.9063   -0.1257 H         1 <0>         0.0781
     43 H10        -6.6810   -4.6189    0.1664 H         1 <0>         0.0799
     44 H11        -5.8174   -4.5462   -2.5479 H         1 <0>         0.4326
     45 H12        -9.6010   -7.2982   -4.1158 H         1 <0>         0.1889
     46 H13        -8.5199   -5.5815    0.5625 H         1 <0>         0.0761
     47 H14        -8.5241   -7.3614    0.5529 H         1 <0>         0.0976
     48 H15        -6.9876   -6.4742    0.4101 H         1 <0>         0.0929
     49 H16        -8.6863   -6.4411   -5.8996 H         1 <0>         0.4124
     50 H17        -9.1716   -5.3576   -8.1277 H         1 <0>         0.1389
     51 H18        -8.1571   -4.6306  -10.2481 H         1 <0>         0.1378
     52 H19        -4.2785   -4.8153   -8.4544 H         1 <0>         0.1258
     53 H20        -5.2951   -5.5329   -6.3318 H         1 <0>         0.1486
@<TRIPOS>BOND
     1    1    2 1
     2    1   34 1
     3    1   35 1
     4    1   36 1
     5    2    3 am
     6    2   37 1
     7    3    4 2
     8    3    5 am
     9    5    6 1
    10    5   38 1
    11    6   11 ar
    12    6    7 ar
    13    7    8 ar
    14    7   39 1
    15    8    9 ar
    16    8   40 1
    17    9   10 ar
    18    9   12 1
    19   10   11 ar
    20   10   41 1
    21   12   13 1
    22   12   42 1
    23   12   43 1
    24   13   14 1
    25   13   44 1
    26   14   18 1
    27   14   15 2
    28   15   16 1
    29   15   20 1
    30   16   17 2
    31   16   45 1
    32   17   18 1
    33   18   19 1
    34   19   46 1
    35   19   47 1
    36   19   48 1
    37   20   21 2
    38   20   22 am
    39   22   23 1
    40   22   49 1
    41   23   28 ar
    42   23   24 ar
    43   24   25 ar
    44   24   50 1
    45   25   26 ar
    46   25   51 1
    47   26   27 ar
    48   26   29 1
    49   27   28 ar
    50   27   52 1
    51   28   53 1
    52   29   30 1
    53   30   31 1
    54   30   32 1
    55   30   33 1
@<TRIPOS>MOLECULE
CHEMBL247797
   54    56     0     0     0
SMALL
USER_CHARGES

@<TRIPOS>ATOM
      1 C1         -0.4296   -1.3254    2.0665 C.3       1 <0>         0.1035
      2 N1          0.0018   -0.8302    0.7569 N.am      1 <0>        -0.7431
      3 C2          0.5107   -1.6849   -0.1525 C.2       1 <0>         0.6904
      4 O1          0.6118   -2.8668    0.1140 O.2       1 <0>        -0.5217
      5 N2          0.9075   -1.2294   -1.3573 N.am      1 <0>        -0.6687
      6 C3          1.5301   -2.0920   -2.2580 C.ar      1 <0>         0.4102
      7 C4          2.0348   -1.5925   -3.4535 C.ar      1 <0>        -0.2112
      8 C5          2.6504   -2.4596   -4.3385 C.ar      1 <0>        -0.0138
      9 C6          2.7405   -3.8021   -3.9960 C.ar      1 <0>        -0.2337
     10 C7          2.2172   -4.2291   -2.7919 C.ar      1 <0>         0.1728
     11 N3          1.6403   -3.3779   -1.9651 N.ar      1 <0>        -0.4720
     12 C8          3.4021   -4.7831   -4.9293 C.3       1 <0>         0.1432
     13 N4          4.8318   -4.8634   -4.6198 N.pl3     1 <0>        -0.6460
     14 C9          5.6700   -5.6131   -5.4200 C.2       1 <0>         0.5240
     15 C10         7.0233   -5.8592   -5.1993 C.2       1 <0>        -0.3233
     16 C11         7.4752   -6.6693   -6.2677 C.2       1 <0>         0.2544
     17 N5          6.4685   -6.8898   -7.0649 N.pl3     1 <0>        -0.3806
     18 N6          5.3317   -6.2500   -6.5595 N.pl3     1 <0>        -0.3657
     19 C12         3.9989   -6.2668   -7.1673 C.3       1 <0>         0.0528
     20 C13         7.8276   -5.3703   -4.0732 C.2       1 <0>         0.6011
     21 O2          7.3148   -4.6760   -3.2153 O.2       1 <0>        -0.5123
     22 N7          9.1342   -5.6903   -3.9892 N.am      1 <0>        -0.6576
     23 C14         9.8843   -5.2861   -2.8770 C.ar      1 <0>         0.1440
     24 C15        11.2369   -5.0045   -3.0171 C.ar      1 <0>        -0.1178
     25 C16        11.9764   -4.6067   -1.9214 C.ar      1 <0>        -0.0609
     26 C17        11.3671   -4.4876   -0.6784 C.ar      1 <0>        -0.1117
     27 C18        10.0137   -4.7689   -0.5387 C.ar      1 <0>        -0.1010
     28 C19         9.2737   -5.1617   -1.6359 C.ar      1 <0>        -0.0940
     29 S1         12.3107   -3.9804    0.7206 S.3       1 <0>        -0.0138
     30 C20        11.1100   -3.9724    2.0803 C.3       1 <0>         0.4510
     31 F1         10.5784   -5.2565    2.2405 F         1 <0>        -0.1625
     32 F2         11.7470   -3.5805    3.2626 F         1 <0>        -0.1407
     33 F3         10.0786   -3.0740    1.7864 F         1 <0>        -0.1626
     34 H1         -1.2168   -2.0674    1.9331 H         1 <0>         0.0630
     35 H2          0.4171   -1.7820    2.5791 H         1 <0>         0.0627
     36 H3         -0.8099   -0.4951    2.6616 H         1 <0>         0.0821
     37 H4         -0.0789    0.1127    0.5443 H         1 <0>         0.4000
     38 H5          0.7598   -0.3013   -1.5976 H         1 <0>         0.4182
     39 H6          1.9471   -0.5420   -3.6882 H         1 <0>         0.1453
     40 H7          3.0515   -2.1004   -5.2747 H         1 <0>         0.1415
     41 H8          2.2846   -5.2725   -2.5214 H         1 <0>         0.1611
     42 H9          2.9477   -5.7661   -4.8049 H         1 <0>         0.0977
     43 H10         3.2713   -4.4501   -5.9589 H         1 <0>         0.0961
     44 H11         5.1893   -4.3897   -3.8526 H         1 <0>         0.4518
     45 H12         8.4808   -7.0405   -6.3997 H         1 <0>         0.2411
     46 H13         3.8623   -5.3677   -7.7683 H         1 <0>         0.1087
     47 H14         3.9003   -7.1470   -7.8026 H         1 <0>         0.1181
     48 H15         3.2424   -6.2981   -6.3832 H         1 <0>         0.1279
     49 H16         9.5552   -6.2004   -4.6988 H         1 <0>         0.4121
     50 H17        11.7105   -5.0972   -3.9833 H         1 <0>         0.1413
     51 H18        13.0285   -4.3885   -2.0303 H         1 <0>         0.1434
     52 H19         9.5398   -4.6768    0.4274 H         1 <0>         0.1305
     53 H20         8.2207   -5.3761   -1.5283 H         1 <0>         0.1474
     54 H21         6.5013   -7.4171   -7.8783 H         1 <0>         0.4769
@<TRIPOS>BOND
     1    1    2 1
     2    1   34 1
     3    1   35 1
     4    1   36 1
     5    2    3 am
     6    2   37 1
     7    3    4 2
     8    3    5 am
     9    5    6 1
    10    5   38 1
    11    6   11 ar
    12    6    7 ar
    13    7    8 ar
    14    7   39 1
    15    8    9 ar
    16    8   40 1
    17    9   10 ar
    18    9   12 1
    19   10   11 ar
    20   10   41 1
    21   12   13 1
    22   12   42 1
    23   12   43 1
    24   13   14 1
    25   13   44 1
    26   14   18 1
    27   14   15 2
    28   15   16 1
    29   15   20 1
    30   16   17 2
    31   16   45 1
    32   17   18 1
    33   17   54 1
    34   18   19 1
    35   19   46 1
    36   19   47 1
    37   19   48 1
    38   20   21 2
    39   20   22 am
    40   22   23 1
    41   22   49 1
    42   23   28 ar
    43   23   24 ar
    44   24   25 ar
    45   24   50 1
    46   25   26 ar
    47   25   51 1
    48   26   27 ar
    49   26   29 1
    50   27   28 ar
    51   27   52 1
    52   28   53 1
    53   29   30 1
    54   30   31 1
    55   30   32 1
    56   30   33 1
@<TRIPOS>MOLECULE
CHEMBL213618
   48    50     0     0     0
SMALL
USER_CHARGES

@<TRIPOS>ATOM
      1 C1         -2.1041    2.2863   -0.7028 C.3       1 <0>         0.1018
      2 N1         -1.8471    0.8596   -0.4913 N.pl3     1 <0>        -0.6965
      3 C2         -2.8758   -0.0565   -0.6270 C.ar      1 <0>         0.5759
      4 N2         -4.0857    0.3753   -0.9540 N.ar      1 <0>        -0.5576
      5 C3         -5.0963   -0.4680   -1.0937 C.ar      1 <0>         0.2078
      6 C4         -4.8825   -1.8201   -0.8943 C.ar      1 <0>        -0.2767
      7 C5         -3.5951   -2.2472   -0.5498 C.ar      1 <0>         0.2821
      8 N3         -2.6246   -1.3408   -0.4321 N.ar      1 <0>        -0.5569
      9 C6         -3.3147   -3.6803   -0.3261 C.2       1 <0>        -0.0714
     10 C7         -2.1203   -4.2890    0.0229 C.2       1 <0>        -0.1288
     11 C8         -2.0949   -5.6467    0.1781 C.2       1 <0>        -0.0483
     12 C9         -3.2668   -6.3618   -0.0201 C.2       1 <0>        -0.2608
     13 S1         -4.4299   -5.0705   -0.4285 S.3       1 <0>         0.1436
     14 C10        -3.4936   -7.8078    0.0846 C.2       1 <0>         0.6083
     15 O1         -2.5746   -8.5478    0.3823 O.2       1 <0>        -0.5100
     16 N4         -4.7197   -8.3163   -0.1490 N.am      1 <0>        -0.7393
     17 C11        -4.9461   -9.7599   -0.0445 C.3       1 <0>         0.1134
     18 H1         -4.1094  -10.2219    0.4795 H         1 <0>         0.1325
     19 C12        -6.2392  -10.0185    0.7314 C.3       1 <0>        -0.0883
     20 C13        -6.0752   -9.5456    2.1529 C.ar      1 <0>        -0.0871
     21 C14        -6.5468   -8.3008    2.5258 C.ar      1 <0>        -0.0849
     22 C15        -6.3968   -7.8664    3.8291 C.ar      1 <0>        -0.1008
     23 C16        -5.7748   -8.6776    4.7618 C.ar      1 <0>        -0.0173
     24 C17        -5.3032   -9.9234    4.3895 C.ar      1 <0>        -0.0977
     25 C18        -5.4579  -10.3596    3.0857 C.ar      1 <0>        -0.0181
     26 Cl1        -4.8717  -11.9255    2.6188 Cl        1 <0>        -0.0517
     27 Cl2        -5.5859   -8.1316    6.3989 Cl        1 <0>        -0.0408
     28 C19        -5.0639  -10.3605   -1.4467 C.3       1 <0>        -0.0207
     29 N5         -3.8726  -10.0097   -2.2313 N.4       1 <0>        -0.6367
     30 H2         -1.1818    2.8477   -0.5532 H         1 <0>         0.0814
     31 H3         -2.4645    2.4438   -1.7193 H         1 <0>         0.0634
     32 H4         -2.8571    2.6290    0.0069 H         1 <0>         0.0635
     33 H5         -0.9560    0.5570   -0.2561 H         1 <0>         0.4178
     34 H6         -6.0777   -0.1042   -1.3601 H         1 <0>         0.1775
     35 H7         -5.6899   -2.5292   -1.0015 H         1 <0>         0.1443
     36 H8         -1.2258   -3.7018    0.1693 H         1 <0>         0.1591
     37 H9         -1.1802   -6.1529    0.4494 H         1 <0>         0.1537
     38 H10        -5.4522   -7.7264   -0.3862 H         1 <0>         0.4120
     39 H11        -7.0598   -9.4771    0.2608 H         1 <0>         0.0995
     40 H12        -6.4584  -11.0863    0.7267 H         1 <0>         0.1095
     41 H13        -7.0323   -7.6673    1.7982 H         1 <0>         0.1408
     42 H14        -6.7648   -6.8935    4.1197 H         1 <0>         0.1450
     43 H15        -4.8176  -10.5568    5.1171 H         1 <0>         0.1492
     44 H16        -5.1434  -11.4450   -1.3720 H         1 <0>         0.1528
     45 H17        -5.9524   -9.9641   -1.9382 H         1 <0>         0.1433
     46 H18        -3.9503  -10.4058   -3.1561 H         1 <0>         0.4414
     47 H19        -3.7991   -9.0058   -2.3005 H         1 <0>         0.4304
     48 H20        -3.0502  -10.3767   -1.7763 H         1 <0>         0.4402
@<TRIPOS>BOND
     1    1    2 1
     2    1   30 1
     3    1   31 1
     4    1   32 1
     5    2    3 1
     6    2   33 1
     7    3    8 ar
     8    3    4 ar
     9    4    5 ar
    10    5    6 ar
    11    5   34 1
    12    6    7 ar
    13    6   35 1
    14    7    8 ar
    15    7    9 1
    16    9   13 1
    17    9   10 2
    18   10   11 1
    19   10   36 1
    20   11   12 2
    21   11   37 1
    22   12   13 1
    23   12   14 1
    24   14   15 2
    25   14   16 am
    26   16   17 1
    27   16   38 1
    28   17   18 1
    29   17   19 1
    30   17   28 1
    31   19   20 1
    32   19   39 1
    33   19   40 1
    34   20   25 ar
    35   20   21 ar
    36   21   22 ar
    37   21   41 1
    38   22   23 ar
    39   22   42 1
    40   23   24 ar
    41   23   27 1
    42   24   25 ar
    43   24   43 1
    44   25   26 1
    45   28   29 1
    46   28   44 1
    47   28   45 1
    48   29   46 1
    49   29   47 1
    50   29   48 1
@<TRIPOS>MOLECULE
CHEMBL594310
   60    65     0     0     0
SMALL
USER_CHARGES

@<TRIPOS>ATOM
      1 C1         -0.0184    1.5028    0.0103 C.3       1 <0>        -0.0778
      2 C2          0.0021   -0.0041    0.0020 C.2       1 <0>         0.1042
      3 C3          0.0084   -0.8581   -1.1821 C.ar      1 <0>        -0.1799
      4 C4         -0.0022   -0.6080   -2.5573 C.ar      1 <0>        -0.0150
      5 C5          0.0081   -1.6742   -3.4435 C.ar      1 <0>        -0.1087
      6 C6          0.0290   -2.9899   -2.9630 C.ar      1 <0>        -0.0417
      7 C7          0.0390   -3.2413   -1.6233 C.ar      1 <0>        -0.1370
      8 C8          0.0294   -2.1860   -0.7124 C.ar      1 <0>         0.1453
      9 N1          0.0351   -2.1193    0.6567 N.pl3     1 <0>        -0.5035
     10 H1          0.0487   -2.8812    1.2569 H         1 <0>         0.4447
     11 N2          0.0230   -0.7772    1.0497 N.2       1 <0>        -0.2431
     12 C9         -0.0035   -1.4210   -4.9043 C.ar      1 <0>        -0.0319
     13 C10        -0.9355   -0.5478   -5.4653 C.ar      1 <0>        -0.0850
     14 C11        -0.9051   -0.3436   -6.8395 C.ar      1 <0>         0.0587
     15 C12         0.0427   -1.0081   -7.6063 C.ar      1 <0>         0.0319
     16 N3          0.9125   -1.8281   -7.0523 N.ar      1 <0>        -0.4335
     17 C13         0.9273   -2.0517   -5.7455 C.ar      1 <0>         0.2004
     18 C14         1.9297   -2.9782   -5.1692 C.2       1 <0>        -0.1597
     19 C15         2.4700   -4.1950   -5.7872 C.2       1 <0>        -0.1833
     20 C16         3.3423   -4.7046   -4.9018 C.2       1 <0>        -0.0336
     21 O1          3.3771   -3.9146   -3.8179 O.3       1 <0>        -0.1726
     22 C17         2.5441   -2.8742   -3.9610 C.2       1 <0>         0.0148
     23 O2         -1.7953    0.4986   -7.4278 O.3       1 <0>        -0.3220
     24 C18        -1.7005    0.6562   -8.8449 C.3       1 <0>         0.0263
     25 C19        -2.7757    1.6345   -9.3223 C.3       1 <0>         0.0425
     26 H2         -3.7544    1.2903   -8.9878 H         1 <0>         0.1544
     27 C20        -2.7559    1.7081  -10.8504 C.3       1 <0>        -0.0564
     28 C21        -3.8928    2.5754  -11.3263 C.2       1 <0>        -0.2295
     29 C22        -5.1090    2.1588  -11.7122 C.2       1 <0>         0.1178
     30 N4         -5.8756    3.2327  -12.0779 N.pl3     1 <0>        -0.5722
     31 H3         -6.7918    3.1807  -12.3923 H         1 <0>         0.4312
     32 C23        -5.1567    4.3950  -11.9338 C.ar      1 <0>         0.2940
     33 C24        -3.8843    4.0340  -11.4502 C.ar      1 <0>        -0.1641
     34 C25        -2.9357    5.0287  -11.2034 C.ar      1 <0>        -0.0669
     35 C26        -3.2935    6.3421  -11.4444 C.ar      1 <0>        -0.1767
     36 C27        -4.5655    6.6253  -11.9170 C.ar      1 <0>         0.1510
     37 N5         -5.4423    5.6719  -12.1504 N.ar      1 <0>        -0.4843
     38 N6         -2.5081    2.9668   -8.7643 N.4       1 <0>        -0.6367
     39 H4          1.0042    1.8801    0.0026 H         1 <0>         0.0861
     40 H5         -0.5455    1.8639   -0.8728 H         1 <0>         0.0805
     41 H6         -0.5286    1.8543    0.9071 H         1 <0>         0.0830
     42 H7         -0.0187    0.4068   -2.9262 H         1 <0>         0.1311
     43 H8          0.0369   -3.8138   -3.6613 H         1 <0>         0.1335
     44 H9          0.0543   -4.2606   -1.2666 H         1 <0>         0.1337
     45 H10        -1.6631   -0.0432   -4.8469 H         1 <0>         0.1492
     46 H11         0.0672   -0.8505   -8.6745 H         1 <0>         0.1591
     47 H12         2.2173   -4.5988   -6.7565 H         1 <0>         0.1551
     48 H13         3.9220   -5.6053   -5.0401 H         1 <0>         0.2077
     49 H14         2.3861   -2.0877   -3.2379 H         1 <0>         0.2036
     50 H15        -0.7153    1.0452   -9.1021 H         1 <0>         0.0920
     51 H16        -1.8474   -0.3095   -9.3285 H         1 <0>         0.1142
     52 H17        -1.8095    2.1358  -11.1813 H         1 <0>         0.1013
     53 H18        -2.8659    0.7056  -11.2639 H         1 <0>         0.1250
     54 H19        -5.4344    1.1292  -11.7318 H         1 <0>         0.1879
     55 H20        -1.9516    4.7793  -10.8347 H         1 <0>         0.1287
     56 H21        -2.5884    7.1404  -11.2657 H         1 <0>         0.1480
     57 H22        -4.8415    7.6525  -12.1042 H         1 <0>         0.1712
     58 H23        -3.2171    3.6119   -9.0792 H         1 <0>         0.4362
     59 H24        -2.5211    2.9182   -7.7566 H         1 <0>         0.4407
     60 H25        -1.6021    3.2853   -9.0740 H         1 <0>         0.4299
@<TRIPOS>BOND
     1    1    2 1
     2    1   39 1
     3    1   40 1
     4    1   41 1
     5    2   11 2
     6    2    3 1
     7    3    8 ar
     8    3    4 ar
     9    4    5 ar
    10    4   42 1
    11    5    6 ar
    12    5   12 1
    13    6    7 ar
    14    6   43 1
    15    7    8 ar
    16    7   44 1
    17    8    9 1
    18    9   10 1
    19    9   11 1
    20   12   17 ar
    21   12   13 ar
    22   13   14 ar
    23   13   45 1
    24   14   15 ar
    25   14   23 1
    26   15   16 ar
    27   15   46 1
    28   16   17 ar
    29   17   18 1
    30   18   22 2
    31   18   19 1
    32   19   20 2
    33   19   47 1
    34   20   21 1
    35   20   48 1
    36   21   22 1
    37   22   49 1
    38   23   24 1
    39   24   25 1
    40   24   50 1
    41   24   51 1
    42   25   26 1
    43   25   27 1
    44   25   38 1
    45   27   28 1
    46   27   52 1
    47   27   53 1
    48   28   33 1
    49   28   29 2
    50   29   30 1
    51   29   54 1
    52   30   31 1
    53   30   32 1
    54   32   37 ar
    55   32   33 ar
    56   33   34 ar
    57   34   35 ar
    58   34   55 1
    59   35   36 ar
    60   35   56 1
    61   36   37 ar
    62   36   57 1
    63   38   58 1
    64   38   59 1
    65   38   60 1
@<TRIPOS>MOLECULE
CHEMBL593142
   61    66     0     0     0
SMALL
USER_CHARGES

@<TRIPOS>ATOM
      1 C1         -0.0184    1.5028    0.0103 C.3       1 <0>        -0.0772
      2 C2          0.0021   -0.0041    0.0020 C.2       1 <0>         0.1026
      3 C3          0.0084   -0.8581   -1.1821 C.ar      1 <0>        -0.1805
      4 C4         -0.0022   -0.6080   -2.5573 C.ar      1 <0>        -0.0142
      5 C5          0.0081   -1.6742   -3.4435 C.ar      1 <0>        -0.1138
      6 C6          0.0290   -2.9899   -2.9630 C.ar      1 <0>        -0.0427
      7 C7          0.0390   -3.2413   -1.6233 C.ar      1 <0>        -0.1348
      8 C8          0.0294   -2.1860   -0.7124 C.ar      1 <0>         0.1472
      9 N1          0.0351   -2.1193    0.6567 N.pl3     1 <0>        -0.5012
     10 H1          0.0487   -2.8812    1.2569 H         1 <0>         0.4462
     11 N2          0.0230   -0.7772    1.0497 N.2       1 <0>        -0.2397
     12 C9         -0.0035   -1.4210   -4.9043 C.ar      1 <0>        -0.0283
     13 C10        -0.9355   -0.5478   -5.4653 C.ar      1 <0>        -0.0824
     14 C11        -0.9051   -0.3436   -6.8395 C.ar      1 <0>         0.0492
     15 C12         0.0427   -1.0081   -7.6063 C.ar      1 <0>         0.0330
     16 N3          0.9125   -1.8281   -7.0523 N.ar      1 <0>        -0.4337
     17 C13         0.9273   -2.0517   -5.7455 C.ar      1 <0>         0.2094
     18 C14         1.9297   -2.9782   -5.1692 C.2       1 <0>        -0.1664
     19 C15         2.4700   -4.1950   -5.7872 C.2       1 <0>        -0.1842
     20 C16         3.3423   -4.7046   -4.9018 C.2       1 <0>        -0.0297
     21 O1          3.3771   -3.9146   -3.8179 O.3       1 <0>        -0.1707
     22 C17         2.5441   -2.8742   -3.9610 C.2       1 <0>         0.0194
     23 O2         -1.7953    0.4986   -7.4278 O.3       1 <0>        -0.3233
     24 C18        -1.7005    0.6562   -8.8449 C.3       1 <0>         0.0246
     25 C19        -2.7757    1.6345   -9.3223 C.3       1 <0>         0.0394
     26 H2         -3.7544    1.2903   -8.9878 H         1 <0>         0.1612
     27 C20        -2.7559    1.7081  -10.8504 C.3       1 <0>        -0.0695
     28 C21        -3.8928    2.5754  -11.3263 C.2       1 <0>        -0.1919
     29 C22        -5.1092    2.1577  -11.7121 C.2       1 <0>         0.1424
     30 N4         -5.8773    3.2308  -12.0783 N.pl3     1 <0>        -0.5508
     31 H3         -6.7934    3.1786  -12.3929 H         1 <0>         0.4506
     32 C23        -5.1595    4.3896  -11.9343 C.ar      1 <0>         0.1880
     33 C24        -3.8833    4.0336  -11.4498 C.ar      1 <0>        -0.1482
     34 C25        -2.9461    5.0352  -11.2073 C.ar      1 <0>         0.1604
     35 N5         -3.2549    6.2967  -11.4263 N.ar      1 <0>        -0.4457
     36 C26        -4.4432    6.6644  -11.8768 C.ar      1 <0>         0.1178
     37 C27        -5.4262    5.7396  -12.1517 C.ar      1 <0>        -0.0964
     38 N6         -2.5081    2.9668   -8.7643 N.4       1 <0>        -0.6406
     39 H4          1.0042    1.8801    0.0026 H         1 <0>         0.0863
     40 H5         -0.5455    1.8639   -0.8728 H         1 <0>         0.0789
     41 H6         -0.5286    1.8543    0.9071 H         1 <0>         0.0838
     42 H7         -0.0187    0.4068   -2.9262 H         1 <0>         0.1297
     43 H8          0.0369   -3.8138   -3.6613 H         1 <0>         0.1338
     44 H9          0.0543   -4.2606   -1.2666 H         1 <0>         0.1353
     45 H10        -1.6631   -0.0432   -4.8469 H         1 <0>         0.1492
     46 H11         0.0672   -0.8505   -8.6745 H         1 <0>         0.1568
     47 H12         2.2173   -4.5988   -6.7565 H         1 <0>         0.1554
     48 H13         3.9220   -5.6053   -5.0401 H         1 <0>         0.2092
     49 H14         2.3861   -2.0877   -3.2379 H         1 <0>         0.2038
     50 H15        -0.7153    1.0452   -9.1021 H         1 <0>         0.0943
     51 H16        -1.8474   -0.3095   -9.3285 H         1 <0>         0.1184
     52 H17        -1.8095    2.1358  -11.1813 H         1 <0>         0.1126
     53 H18        -2.8659    0.7056  -11.2639 H         1 <0>         0.1422
     54 H19        -5.4337    1.1278  -11.7312 H         1 <0>         0.2109
     55 H20        -1.9643    4.7769  -10.8387 H         1 <0>         0.1996
     56 H21        -4.6448    7.7129  -12.0390 H         1 <0>         0.2191
     57 H22        -6.3915    6.0566  -12.5178 H         1 <0>         0.1903
     58 H23        -3.2171    3.6119   -9.0792 H         1 <0>         0.4244
     59 H24        -2.5211    2.9182   -7.7566 H         1 <0>         0.4509
     60 H25        -2.5886    6.9795  -11.2509 H         1 <0>         0.4589
     61 H26        -1.6021    3.2853   -9.0740 H         1 <0>         0.4304
@<TRIPOS>BOND
     1    1    2 1
     2    1   39 1
     3    1   40 1
     4    1   41 1
     5    2   11 2
     6    2    3 1
     7    3    8 ar
     8    3    4 ar
     9    4    5 ar
    10    4   42 1
    11    5    6 ar
    12    5   12 1
    13    6    7 ar
    14    6   43 1
    15    7    8 ar
    16    7   44 1
    17    8    9 1
    18    9   10 1
    19    9   11 1
    20   12   17 ar
    21   12   13 ar
    22   13   14 ar
    23   13   45 1
    24   14   15 ar
    25   14   23 1
    26   15   16 ar
    27   15   46 1
    28   16   17 ar
    29   17   18 1
    30   18   22 2
    31   18   19 1
    32   19   20 2
    33   19   47 1
    34   20   21 1
    35   20   48 1
    36   21   22 1
    37   22   49 1
    38   23   24 1
    39   24   25 1
    40   24   50 1
    41   24   51 1
    42   25   26 1
    43   25   27 1
    44   25   38 1
    45   27   28 1
    46   27   52 1
    47   27   53 1
    48   28   33 1
    49   28   29 2
    50   29   30 1
    51   29   54 1
    52   30   31 1
    53   30   32 1
    54   32   37 ar
    55   32   33 ar
    56   33   34 ar
    57   34   35 ar
    58   34   55 1
    59   35   36 ar
    60   35   60 1
    61   36   37 ar
    62   36   56 1
    63   37   57 1
    64   38   58 1
    65   38   59 1
    66   38   61 1
@<TRIPOS>MOLECULE
CHEMBL593142
   60    65     0     0     0
SMALL
USER_CHARGES

@<TRIPOS>ATOM
      1 C1         -0.0184    1.5028    0.0103 C.3       1 <0>        -0.0779
      2 C2          0.0021   -0.0041    0.0020 C.2       1 <0>         0.1043
      3 C3          0.0084   -0.8581   -1.1821 C.ar      1 <0>        -0.1798
      4 C4         -0.0022   -0.6080   -2.5573 C.ar      1 <0>        -0.0150
      5 C5          0.0081   -1.6742   -3.4435 C.ar      1 <0>        -0.1086
      6 C6          0.0290   -2.9899   -2.9630 C.ar      1 <0>        -0.0417
      7 C7          0.0390   -3.2413   -1.6233 C.ar      1 <0>        -0.1371
      8 C8          0.0294   -2.1860   -0.7124 C.ar      1 <0>         0.1452
      9 N1          0.0351   -2.1193    0.6567 N.pl3     1 <0>        -0.5035
     10 H1          0.0487   -2.8812    1.2569 H         1 <0>         0.4447
     11 N2          0.0230   -0.7772    1.0497 N.2       1 <0>        -0.2433
     12 C9         -0.0035   -1.4210   -4.9043 C.ar      1 <0>        -0.0320
     13 C10        -0.9355   -0.5478   -5.4653 C.ar      1 <0>        -0.0850
     14 C11        -0.9051   -0.3436   -6.8395 C.ar      1 <0>         0.0588
     15 C12         0.0427   -1.0081   -7.6063 C.ar      1 <0>         0.0320
     16 N3          0.9125   -1.8281   -7.0523 N.ar      1 <0>        -0.4335
     17 C13         0.9273   -2.0517   -5.7455 C.ar      1 <0>         0.2004
     18 C14         1.9297   -2.9782   -5.1692 C.2       1 <0>        -0.1596
     19 C15         2.4700   -4.1950   -5.7872 C.2       1 <0>        -0.1833
     20 C16         3.3423   -4.7046   -4.9018 C.2       1 <0>        -0.0337
     21 O1          3.3771   -3.9146   -3.8179 O.3       1 <0>        -0.1727
     22 C17         2.5441   -2.8742   -3.9610 C.2       1 <0>         0.0148
     23 O2         -1.7953    0.4986   -7.4278 O.3       1 <0>        -0.3219
     24 C18        -1.7005    0.6562   -8.8449 C.3       1 <0>         0.0260
     25 C19        -2.7757    1.6345   -9.3223 C.3       1 <0>         0.0430
     26 H2         -3.7544    1.2903   -8.9878 H         1 <0>         0.1539
     27 C20        -2.7559    1.7081  -10.8504 C.3       1 <0>        -0.0583
     28 C21        -3.8928    2.5754  -11.3263 C.2       1 <0>        -0.2183
     29 C22        -5.1092    2.1577  -11.7121 C.2       1 <0>         0.1048
     30 N4         -5.8773    3.2308  -12.0783 N.pl3     1 <0>        -0.5780
     31 H3         -6.7934    3.1786  -12.3929 H         1 <0>         0.4300
     32 C23        -5.1595    4.3896  -11.9343 C.ar      1 <0>         0.1340
     33 C24        -3.8833    4.0336  -11.4498 C.ar      1 <0>        -0.1766
     34 C25        -2.9461    5.0352  -11.2073 C.ar      1 <0>         0.1245
     35 N5         -3.2549    6.2967  -11.4263 N.ar      1 <0>        -0.4799
     36 C26        -4.4432    6.6644  -11.8768 C.ar      1 <0>         0.1102
     37 C27        -5.4262    5.7396  -12.1517 C.ar      1 <0>        -0.1606
     38 N6         -2.5081    2.9668   -8.7643 N.4       1 <0>        -0.6371
     39 H4          1.0042    1.8801    0.0026 H         1 <0>         0.0861
     40 H5         -0.5455    1.8639   -0.8728 H         1 <0>         0.0806
     41 H6         -0.5286    1.8543    0.9071 H         1 <0>         0.0830
     42 H7         -0.0187    0.4068   -2.9262 H         1 <0>         0.1312
     43 H8          0.0369   -3.8138   -3.6613 H         1 <0>         0.1334
     44 H9          0.0543   -4.2606   -1.2666 H         1 <0>         0.1337
     45 H10        -1.6631   -0.0432   -4.8469 H         1 <0>         0.1492
     46 H11         0.0672   -0.8505   -8.6745 H         1 <0>         0.1592
     47 H12         2.2173   -4.5988   -6.7565 H         1 <0>         0.1550
     48 H13         3.9220   -5.6053   -5.0401 H         1 <0>         0.2077
     49 H14         2.3861   -2.0877   -3.2379 H         1 <0>         0.2037
     50 H15        -0.7153    1.0452   -9.1021 H         1 <0>         0.0929
     51 H16        -1.8474   -0.3095   -9.3285 H         1 <0>         0.1141
     52 H17        -1.8095    2.1358  -11.1813 H         1 <0>         0.1034
     53 H18        -2.8659    0.7056  -11.2639 H         1 <0>         0.1252
     54 H19        -5.4337    1.1278  -11.7312 H         1 <0>         0.1847
     55 H20        -1.9643    4.7769  -10.8387 H         1 <0>         0.1482
     56 H21        -4.6448    7.7129  -12.0391 H         1 <0>         0.1686
     57 H22        -6.3915    6.0566  -12.5178 H         1 <0>         0.1426
     58 H23        -3.2171    3.6119   -9.0792 H         1 <0>         0.4359
     59 H24        -2.5211    2.9182   -7.7566 H         1 <0>         0.4411
     60 H25        -1.6021    3.2853   -9.0740 H         1 <0>         0.4312
@<TRIPOS>BOND
     1    1    2 1
     2    1   39 1
     3    1   40 1
     4    1   41 1
     5    2   11 2
     6    2    3 1
     7    3    8 ar
     8    3    4 ar
     9    4    5 ar
    10    4   42 1
    11    5    6 ar
    12    5   12 1
    13    6    7 ar
    14    6   43 1
    15    7    8 ar
    16    7   44 1
    17    8    9 1
    18    9   10 1
    19    9   11 1
    20   12   17 ar
    21   12   13 ar
    22   13   14 ar
    23   13   45 1
    24   14   15 ar
    25   14   23 1
    26   15   16 ar
    27   15   46 1
    28   16   17 ar
    29   17   18 1
    30   18   22 2
    31   18   19 1
    32   19   20 2
    33   19   47 1
    34   20   21 1
    35   20   48 1
    36   21   22 1
    37   22   49 1
    38   23   24 1
    39   24   25 1
    40   24   50 1
    41   24   51 1
    42   25   26 1
    43   25   27 1
    44   25   38 1
    45   27   28 1
    46   27   52 1
    47   27   53 1
    48   28   33 1
    49   28   29 2
    50   29   30 1
    51   29   54 1
    52   30   31 1
    53   30   32 1
    54   32   37 ar
    55   32   33 ar
    56   33   34 ar
    57   34   35 ar
    58   34   55 1
    59   35   36 ar
    60   36   37 ar
    61   36   56 1
    62   37   57 1
    63   38   58 1
    64   38   59 1
    65   38   60 1
@<TRIPOS>MOLECULE
CHEMBL247619
   55    58     0     0     0
SMALL
USER_CHARGES

@<TRIPOS>ATOM
      1 C1          2.0387   -1.2776   -0.6519 C.3       1 <0>         0.1053
      2 N1          0.6769   -0.8155   -0.3722 N.am      1 <0>        -0.7468
      3 C2         -0.3433   -1.6960   -0.3553 C.2       1 <0>         0.6904
      4 O1         -0.1335   -2.8738   -0.5722 O.2       1 <0>        -0.5221
      5 N2         -1.5961   -1.2709   -0.0980 N.am      1 <0>        -0.6700
      6 C3         -2.6655   -2.1609   -0.1839 C.ar      1 <0>         0.3926
      7 C4         -3.9653   -1.6933   -0.0249 C.ar      1 <0>        -0.2108
      8 C5         -5.0175   -2.5873   -0.1126 C.ar      1 <0>        -0.0200
      9 C6         -4.7324   -3.9239   -0.3574 C.ar      1 <0>        -0.2062
     10 C7         -3.4176   -4.3186   -0.5049 C.ar      1 <0>         0.1631
     11 N3         -2.4348   -3.4422   -0.4215 N.ar      1 <0>        -0.4728
     12 C8         -5.8464   -4.9335   -0.4604 C.3       1 <0>         0.1600
     13 N4         -6.2911   -5.0296   -1.8530 N.pl3     1 <0>        -0.6993
     14 C9         -7.3840   -5.8080   -2.1763 C.2       1 <0>         0.4464
     15 C10        -7.8630   -6.0706   -3.4578 C.2       1 <0>        -0.3786
     16 C11        -8.9935   -6.9089   -3.3122 C.2       1 <0>         0.1139
     17 N5         -9.1752   -7.1296   -2.0411 N.2       1 <0>        -0.2950
     18 N6         -8.1856   -6.4622   -1.3114 N.pl3     1 <0>        -0.3952
     19 C12        -8.0453   -6.4705    0.1468 C.3       1 <0>         0.0848
     20 C13        -7.3020   -5.5722   -4.7190 C.2       1 <0>         0.6082
     21 O2         -6.3202   -4.8533   -4.7062 O.2       1 <0>        -0.5421
     22 N7         -7.8742   -5.9106   -5.8914 N.am      1 <0>        -0.6675
     23 C14        -7.2963   -5.4964   -7.0981 C.ar      1 <0>         0.1806
     24 C15        -8.0998   -5.2386   -8.2008 C.ar      1 <0>        -0.1292
     25 C16        -7.5301   -4.8314   -9.3914 C.ar      1 <0>        -0.0649
     26 C17        -6.1550   -4.6784   -9.4896 C.ar      1 <0>         0.0246
     27 C18        -5.3482   -4.9333   -8.3869 C.ar      1 <0>         0.0725
     28 C19        -5.9208   -5.3379   -7.1907 C.ar      1 <0>        -0.0998
     29 O3         -3.9976   -4.7812   -8.4619 O.3       1 <0>        -0.2935
     30 C20        -3.4273   -4.7304   -9.7741 C.3       1 <0>         0.4127
     31 C21        -4.2720   -3.7756  -10.6285 C.3       1 <0>         0.4128
     32 O4         -5.6111   -4.2801  -10.6732 O.3       1 <0>        -0.2953
     33 F1         -4.2674   -2.4997  -10.0548 F         1 <0>        -0.1504
     34 F2         -3.7479   -3.7130  -11.9242 F         1 <0>        -0.1232
     35 F3         -2.1125   -4.2583   -9.6990 F         1 <0>        -0.1226
     36 F4         -3.4387   -6.0083  -10.3433 F         1 <0>        -0.1499
     37 H1          2.7232   -0.4298   -0.6229 H         1 <0>         0.0789
     38 H2          2.3353   -2.0100    0.0990 H         1 <0>         0.0611
     39 H3          2.0708   -1.7368   -1.6399 H         1 <0>         0.0613
     40 H4          0.5096    0.1241   -0.1992 H         1 <0>         0.3980
     41 H5         -1.7536   -0.3457    0.1470 H         1 <0>         0.4149
     42 H6         -4.1510   -0.6464    0.1648 H         1 <0>         0.1400
     43 H7         -6.0375   -2.2531    0.0070 H         1 <0>         0.1402
     44 H8         -3.1910   -5.3573   -0.6950 H         1 <0>         0.1602
     45 H9         -5.4870   -5.9066   -0.1258 H         1 <0>         0.0784
     46 H10        -6.6808   -4.6191    0.1665 H         1 <0>         0.0801
     47 H11        -5.8174   -4.5462   -2.5478 H         1 <0>         0.4328
     48 H12        -9.6009   -7.2984   -4.1158 H         1 <0>         0.1895
     49 H13        -8.5199   -5.5816    0.5625 H         1 <0>         0.0764
     50 H14        -8.5241   -7.3615    0.5529 H         1 <0>         0.0978
     51 H15        -6.9876   -6.4744    0.4101 H         1 <0>         0.0931
     52 H16        -8.6863   -6.4411   -5.8995 H         1 <0>         0.4162
     53 H17        -9.1708   -5.3569   -8.1276 H         1 <0>         0.1502
     54 H18        -8.1568   -4.6320  -10.2480 H         1 <0>         0.1540
     55 H19        -5.2957   -5.5339   -6.3321 H         1 <0>         0.1642
@<TRIPOS>BOND
     1    1    2 1
     2    1   37 1
     3    1   38 1
     4    1   39 1
     5    2    3 am
     6    2   40 1
     7    3    4 2
     8    3    5 am
     9    5    6 1
    10    5   41 1
    11    6   11 ar
    12    6    7 ar
    13    7    8 ar
    14    7   42 1
    15    8    9 ar
    16    8   43 1
    17    9   10 ar
    18    9   12 1
    19   10   11 ar
    20   10   44 1
    21   12   13 1
    22   12   45 1
    23   12   46 1
    24   13   14 1
    25   13   47 1
    26   14   18 1
    27   14   15 2
    28   15   16 1
    29   15   20 1
    30   16   17 2
    31   16   48 1
    32   17   18 1
    33   18   19 1
    34   19   49 1
    35   19   50 1
    36   19   51 1
    37   20   21 2
    38   20   22 am
    39   22   23 1
    40   22   52 1
    41   23   28 ar
    42   23   24 ar
    43   24   25 ar
    44   24   53 1
    45   25   26 ar
    46   25   54 1
    47   26   32 1
    48   26   27 ar
    49   27   28 ar
    50   27   29 1
    51   28   55 1
    52   29   30 1
    53   30   31 1
    54   30   35 1
    55   30   36 1
    56   31   32 1
    57   31   33 1
    58   31   34 1
@<TRIPOS>MOLECULE
CHEMBL247619
   56    59     0     0     0
SMALL
USER_CHARGES

@<TRIPOS>ATOM
      1 C1          2.0386   -1.2774   -0.6517 C.3       1 <0>         0.1035
      2 N1          0.6768   -0.8153   -0.3721 N.am      1 <0>        -0.7431
      3 C2         -0.3435   -1.6958   -0.3552 C.2       1 <0>         0.6903
      4 O1         -0.1337   -2.8736   -0.5720 O.2       1 <0>        -0.5215
      5 N2         -1.5963   -1.2707   -0.0980 N.am      1 <0>        -0.6686
      6 C3         -2.6657   -2.1607   -0.1839 C.ar      1 <0>         0.4105
      7 C4         -3.9655   -1.6931   -0.0250 C.ar      1 <0>        -0.2113
      8 C5         -5.0177   -2.5871   -0.1127 C.ar      1 <0>        -0.0137
      9 C6         -4.7325   -3.9238   -0.3574 C.ar      1 <0>        -0.2344
     10 C7         -3.4177   -4.3184   -0.5048 C.ar      1 <0>         0.1731
     11 N3         -2.4349   -3.4421   -0.4214 N.ar      1 <0>        -0.4718
     12 C8         -5.8466   -4.9334   -0.4604 C.3       1 <0>         0.1432
     13 N4         -6.2912   -5.0296   -1.8530 N.pl3     1 <0>        -0.6455
     14 C9         -7.3840   -5.8080   -2.1763 C.2       1 <0>         0.5246
     15 C10        -7.8631   -6.0707   -3.4578 C.2       1 <0>        -0.3243
     16 C11        -8.9935   -6.9089   -3.3122 C.2       1 <0>         0.2556
     17 N5         -9.1752   -7.1296   -2.0411 N.pl3     1 <0>        -0.3800
     18 N6         -8.1856   -6.4622   -1.3114 N.pl3     1 <0>        -0.3656
     19 C12        -8.0454   -6.4704    0.1469 C.3       1 <0>         0.0528
     20 C13        -7.3021   -5.5722   -4.7190 C.2       1 <0>         0.6018
     21 O2         -6.3202   -4.8532   -4.7062 O.2       1 <0>        -0.5096
     22 N7         -7.8742   -5.9107   -5.8914 N.am      1 <0>        -0.6551
     23 C14        -7.2963   -5.4964   -7.0981 C.ar      1 <0>         0.1567
     24 C15        -8.0998   -5.2386   -8.2008 C.ar      1 <0>        -0.1177
     25 C16        -7.5301   -4.8314   -9.3914 C.ar      1 <0>        -0.0652
     26 C17        -6.1549   -4.6785   -9.4896 C.ar      1 <0>         0.0427
     27 C18        -5.3482   -4.9334   -8.3869 C.ar      1 <0>         0.0733
     28 C19        -5.9208   -5.3380   -7.1907 C.ar      1 <0>        -0.0949
     29 O3         -3.9976   -4.7813   -8.4619 O.3       1 <0>        -0.2943
     30 C20        -3.4273   -4.7305   -9.7741 C.3       1 <0>         0.4138
     31 C21        -4.2719   -3.7757  -10.6285 C.3       1 <0>         0.4136
     32 O4         -5.6111   -4.2802  -10.6732 O.3       1 <0>        -0.2936
     33 F1         -4.2673   -2.4998  -10.0548 F         1 <0>        -0.1481
     34 F2         -3.7478   -3.7132  -11.9241 F         1 <0>        -0.1175
     35 F3         -2.1124   -4.2585   -9.6990 F         1 <0>        -0.1180
     36 F4         -3.4387   -6.0084  -10.3433 F         1 <0>        -0.1471
     37 H1          2.7231   -0.4296   -0.6227 H         1 <0>         0.0821
     38 H2          2.3351   -2.0097    0.0992 H         1 <0>         0.0630
     39 H3          2.0707   -1.7367   -1.6397 H         1 <0>         0.0628
     40 H4          0.5094    0.1244   -0.1991 H         1 <0>         0.4000
     41 H5         -1.7538   -0.3454    0.1469 H         1 <0>         0.4182
     42 H6         -4.1512   -0.6462    0.1647 H         1 <0>         0.1453
     43 H7         -6.0377   -2.2530    0.0069 H         1 <0>         0.1415
     44 H8         -3.1911   -5.3571   -0.6949 H         1 <0>         0.1611
     45 H9         -5.4871   -5.9065   -0.1257 H         1 <0>         0.0980
     46 H10        -6.6810   -4.6190    0.1665 H         1 <0>         0.0964
     47 H11        -5.8175   -4.5462   -2.5478 H         1 <0>         0.4519
     48 H12        -9.6008   -7.2985   -4.1158 H         1 <0>         0.2417
     49 H13        -8.5200   -5.5816    0.5625 H         1 <0>         0.1089
     50 H14        -8.5241   -7.3615    0.5529 H         1 <0>         0.1182
     51 H15        -6.9877   -6.4743    0.4101 H         1 <0>         0.1281
     52 H16        -8.6863   -6.4411   -5.8995 H         1 <0>         0.4160
     53 H17        -9.1708   -5.3569   -8.1276 H         1 <0>         0.1526
     54 H18        -8.1568   -4.6320  -10.2480 H         1 <0>         0.1595
     55 H19        -5.2957   -5.5340   -6.3321 H         1 <0>         0.1631
     56 H20        -9.8824   -7.6739   -1.6610 H         1 <0>         0.4772
@<TRIPOS>BOND
     1    1    2 1
     2    1   37 1
     3    1   38 1
     4    1   39 1
     5    2    3 am
     6    2   40 1
     7    3    4 2
     8    3    5 am
     9    5    6 1
    10    5   41 1
    11    6   11 ar
    12    6    7 ar
    13    7    8 ar
    14    7   42 1
    15    8    9 ar
    16    8   43 1
    17    9   10 ar
    18    9   12 1
    19   10   11 ar
    20   10   44 1
    21   12   13 1
    22   12   45 1
    23   12   46 1
    24   13   14 1
    25   13   47 1
    26   14   18 1
    27   14   15 2
    28   15   16 1
    29   15   20 1
    30   16   17 2
    31   16   48 1
    32   17   18 1
    33   17   56 1
    34   18   19 1
    35   19   49 1
    36   19   50 1
    37   19   51 1
    38   20   21 2
    39   20   22 am
    40   22   23 1
    41   22   52 1
    42   23   28 ar
    43   23   24 ar
    44   24   25 ar
    45   24   53 1
    46   25   26 ar
    47   25   54 1
    48   26   32 1
    49   26   27 ar
    50   27   28 ar
    51   27   29 1
    52   28   55 1
    53   29   30 1
    54   30   31 1
    55   30   35 1
    56   30   36 1
    57   31   32 1
    58   31   33 1
    59   31   34 1
@<TRIPOS>MOLECULE
CHEMBL446134
   73    79     0     0     0
SMALL
USER_CHARGES

@<TRIPOS>ATOM
      1 C1         -0.0167    1.3791    0.0096 C.ar      1 <0>        -0.1085
      2 C2          1.1686    2.0923    0.0021 C.ar      1 <0>        -0.1114
      3 C3          2.3774    1.4267   -0.0135 C.ar      1 <0>        -0.1012
      4 C4          2.4025    0.0330   -0.0212 C.ar      1 <0>        -0.0521
      5 C5          1.2049   -0.6804   -0.0131 C.ar      1 <0>        -0.0990
      6 C6          0.0021   -0.0041    0.0020 C.ar      1 <0>        -0.1224
      7 C7          3.6980   -0.6879   -0.0385 C.ar      1 <0>        -0.0909
      8 C8          4.6857   -0.3493   -0.9631 C.ar      1 <0>         0.0019
      9 C9          5.8841   -1.0613   -0.9308 C.ar      1 <0>        -0.1755
     10 C10         6.0628   -2.0795    0.0127 C.ar      1 <0>         0.1767
     11 N1          5.1095   -2.3723    0.8692 N.ar      1 <0>        -0.4683
     12 C11         3.9536   -1.7198    0.8802 C.ar      1 <0>         0.1855
     13 C12         2.9169   -2.0883    1.8712 C.ar      1 <0>        -0.0109
     14 C13         2.0856   -1.1076    2.4127 C.ar      1 <0>        -0.0819
     15 C14         1.1215   -1.4573    3.3357 C.ar      1 <0>        -0.0996
     16 C15         0.9786   -2.7772    3.7247 C.ar      1 <0>        -0.1499
     17 C16         1.8000   -3.7544    3.1914 C.ar      1 <0>        -0.0968
     18 C17         2.7637   -3.4183    2.2629 C.ar      1 <0>        -0.0756
     19 C18        -0.0758   -3.1521    4.7341 C.3       1 <0>         0.0432
     20 N2         -1.3272   -3.4776    4.0370 N.4       1 <0>        -0.3834
     21 C19        -1.8347   -2.2782    3.3599 C.3       1 <0>        -0.0113
     22 C20        -3.0943   -2.6307    2.5658 C.3       1 <0>        -0.1379
     23 C21        -4.1614   -3.1681    3.5237 C.3       1 <0>         0.0021
     24 C22        -3.5949   -4.3741    4.2786 C.3       1 <0>        -0.1400
     25 C23        -2.3168   -3.9570    5.0093 C.3       1 <0>        -0.0033
     26 C24        -5.3766   -3.5904    2.7387 C.2       1 <0>         0.2198
     27 N3         -6.5995   -3.0904    2.8848 N.2       1 <0>        -0.5189
     28 H1         -7.0520   -5.1741    0.6402 H         1 <0>         0.4543
     29 C25        -7.4253   -3.6795    2.0444 C.2       1 <0>         0.3520
     30 N4         -6.7158   -4.5864    1.3347 N.pl3     1 <0>        -0.4477
     31 N5         -5.3939   -4.5033    1.8015 N.2       1 <0>        -0.3002
     32 C26        -8.8718   -3.3996    1.9026 C.ar      1 <0>         0.1603
     33 C27        -9.4700   -2.4277    2.7037 C.ar      1 <0>        -0.1102
     34 C28       -10.8235   -2.1770    2.5591 C.ar      1 <0>        -0.0738
     35 C29       -11.5355   -2.9066    1.6176 C.ar      1 <0>        -0.1434
     36 C30       -10.8783   -3.8563    0.8562 C.ar      1 <0>         0.1095
     37 N6         -9.5882   -4.0721    1.0099 N.ar      1 <0>        -0.4749
     38 C31         7.3683   -2.8332    0.0306 C.3       1 <0>        -0.0936
     39 C32         7.9088   -2.9712   -1.3905 C.3       1 <0>         0.1113
     40 N7          7.9509   -1.6764   -2.0645 N.am      1 <0>        -0.7225
     41 C33         6.9768   -0.7627   -1.8784 C.2       1 <0>         0.5679
     42 O1          6.9977    0.2920   -2.4825 O.2       1 <0>        -0.5227
     43 H2         -0.9603    1.9042    0.0260 H         1 <0>         0.1265
     44 H3          1.1479    3.1721    0.0082 H         1 <0>         0.1307
     45 H4          3.3022    1.9845   -0.0200 H         1 <0>         0.1289
     46 H5          1.2184   -1.7603   -0.0194 H         1 <0>         0.1199
     47 H6         -0.9264   -0.5557    0.0083 H         1 <0>         0.1226
     48 H7          4.5272    0.4407   -1.6822 H         1 <0>         0.1558
     49 H8          2.1967   -0.0768    2.1103 H         1 <0>         0.1428
     50 H9          0.4773   -0.6989    3.7556 H         1 <0>         0.1351
     51 H10         1.6836   -4.7831    3.4991 H         1 <0>         0.1355
     52 H11         3.4014   -4.1827    1.8439 H         1 <0>         0.1416
     53 H12         0.2587   -4.0189    5.3041 H         1 <0>         0.1390
     54 H13        -0.2444   -2.3148    5.4114 H         1 <0>         0.1375
     55 H14        -2.0748   -1.5168    4.1020 H         1 <0>         0.1331
     56 H15        -1.0730   -1.8951    2.6809 H         1 <0>         0.1364
     57 H16        -3.4706   -1.7385    2.0653 H         1 <0>         0.1152
     58 H17        -2.8553   -3.3919    1.8231 H         1 <0>         0.0960
     59 H18        -4.4379   -2.3898    4.2350 H         1 <0>         0.1175
     60 H19        -4.3290   -4.7280    5.0024 H         1 <0>         0.1164
     61 H20        -3.3662   -5.1715    3.5715 H         1 <0>         0.0966
     62 H21        -1.9109   -4.8133    5.5480 H         1 <0>         0.1359
     63 H22        -2.5466   -3.1598    5.7163 H         1 <0>         0.1338
     64 H23        -8.8855   -1.8785    3.4270 H         1 <0>         0.1515
     65 H24       -11.3146   -1.4304    3.1656 H         1 <0>         0.1489
     66 H25       -12.5929   -2.7349    1.4809 H         1 <0>         0.1481
     67 H26       -11.4299   -4.4259    0.1230 H         1 <0>         0.1699
     68 H27         8.0906   -2.2917    0.6415 H         1 <0>         0.1026
     69 H28         7.2083   -3.8244    0.4548 H         1 <0>         0.1130
     70 H29         8.9156   -3.3871   -1.3514 H         1 <0>         0.1032
     71 H30         7.2653   -3.6470   -1.9538 H         1 <0>         0.0728
     72 H31         8.6917   -1.4702   -2.6558 H         1 <0>         0.4129
     73 H32        -1.1523   -4.1987    3.3532 H         1 <0>         0.4234
@<TRIPOS>BOND
     1    1    6 ar
     2    1    2 ar
     3    1   43 1
     4    2    3 ar
     5    2   44 1
     6    3    4 ar
     7    3   45 1
     8    4    5 ar
     9    4    7 1
    10    5    6 ar
    11    5   46 1
    12    6   47 1
    13    7   12 ar
    14    7    8 ar
    15    8    9 ar
    16    8   48 1
    17    9   41 1
    18    9   10 ar
    19   10   11 ar
    20   10   38 1
    21   11   12 ar
    22   12   13 1
    23   13   18 ar
    24   13   14 ar
    25   14   15 ar
    26   14   49 1
    27   15   16 ar
    28   15   50 1
    29   16   17 ar
    30   16   19 1
    31   17   18 ar
    32   17   51 1
    33   18   52 1
    34   19   20 1
    35   19   53 1
    36   19   54 1
    37   20   25 1
    38   20   21 1
    39   20   73 1
    40   21   22 1
    41   21   55 1
    42   21   56 1
    43   22   23 1
    44   22   57 1
    45   22   58 1
    46   23   24 1
    47   23   59 1
    48   23   26 1
    49   24   25 1
    50   24   60 1
    51   24   61 1
    52   25   62 1
    53   25   63 1
    54   26   27 1
    55   26   31 2
    56   27   29 2
    57   28   30 1
    58   29   32 1
    59   29   30 1
    60   30   31 1
    61   32   37 ar
    62   32   33 ar
    63   33   34 ar
    64   33   64 1
    65   34   35 ar
    66   34   65 1
    67   35   36 ar
    68   35   66 1
    69   36   37 ar
    70   36   67 1
    71   38   39 1
    72   38   68 1
    73   38   69 1
    74   39   40 1
    75   39   70 1
    76   39   71 1
    77   40   41 am
    78   40   72 1
    79   41   42 2
@<TRIPOS>MOLECULE
CHEMBL446134
   73    79     0     0     0
SMALL
USER_CHARGES

@<TRIPOS>ATOM
      1 C1         -0.0167    1.3791    0.0096 C.ar      1 <0>        -0.1077
      2 C2          1.1686    2.0923    0.0021 C.ar      1 <0>        -0.1108
      3 C3          2.3774    1.4267   -0.0135 C.ar      1 <0>        -0.1009
      4 C4          2.4025    0.0330   -0.0212 C.ar      1 <0>        -0.0526
      5 C5          1.2049   -0.6804   -0.0131 C.ar      1 <0>        -0.0999
      6 C6          0.0021   -0.0041    0.0020 C.ar      1 <0>        -0.1228
      7 C7          3.6980   -0.6879   -0.0385 C.ar      1 <0>        -0.0903
      8 C8          4.6857   -0.3493   -0.9631 C.ar      1 <0>         0.0018
      9 C9          5.8841   -1.0613   -0.9308 C.ar      1 <0>        -0.1745
     10 C10         6.0628   -2.0795    0.0127 C.ar      1 <0>         0.1767
     11 N1          5.1095   -2.3723    0.8692 N.ar      1 <0>        -0.4682
     12 C11         3.9536   -1.7198    0.8802 C.ar      1 <0>         0.1839
     13 C12         2.9169   -2.0883    1.8712 C.ar      1 <0>        -0.0089
     14 C13         2.0856   -1.1076    2.4127 C.ar      1 <0>        -0.0814
     15 C14         1.1215   -1.4573    3.3357 C.ar      1 <0>        -0.0994
     16 C15         0.9786   -2.7772    3.7247 C.ar      1 <0>        -0.1520
     17 C16         1.8000   -3.7544    3.1914 C.ar      1 <0>        -0.0970
     18 C17         2.7637   -3.4183    2.2629 C.ar      1 <0>        -0.0761
     19 C18        -0.0758   -3.1521    4.7341 C.3       1 <0>         0.0434
     20 N2         -1.3272   -3.4776    4.0370 N.4       1 <0>        -0.3844
     21 C19        -1.8347   -2.2782    3.3599 C.3       1 <0>        -0.0123
     22 C20        -3.0943   -2.6307    2.5658 C.3       1 <0>        -0.1383
     23 C21        -4.1614   -3.1681    3.5237 C.3       1 <0>        -0.0161
     24 C22        -3.5949   -4.3741    4.2786 C.3       1 <0>        -0.1489
     25 C23        -2.3168   -3.9570    5.0093 C.3       1 <0>        -0.0022
     26 C24        -5.3766   -3.5904    2.7387 C.2       1 <0>         0.2712
     27 N3         -6.4360   -2.8590    2.5163 N.2       1 <0>        -0.4883
     28 H1         -4.9313   -5.5270    2.1352 H         1 <0>         0.4403
     29 C25        -7.3193   -3.5510    1.7840 C.2       1 <0>         0.2884
     30 N4         -6.8192   -4.7413    1.5340 N.2       1 <0>        -0.2780
     31 N5         -5.5539   -4.7833    2.1419 N.pl3     1 <0>        -0.4754
     32 C26        -8.6426   -3.0564    1.3306 C.ar      1 <0>         0.1847
     33 C27        -9.4688   -3.8864    0.5758 C.ar      1 <0>        -0.1315
     34 C28       -10.7006   -3.4113    0.1605 C.ar      1 <0>        -0.0745
     35 C29       -11.0662   -2.1200    0.5142 C.ar      1 <0>        -0.1509
     36 C30       -10.1968   -1.3510    1.2652 C.ar      1 <0>         0.1034
     37 N6         -9.0317   -1.8297    1.6520 N.ar      1 <0>        -0.4470
     38 C31         7.3683   -2.8332    0.0306 C.3       1 <0>        -0.0936
     39 C32         7.9088   -2.9712   -1.3905 C.3       1 <0>         0.1113
     40 N7          7.9509   -1.6764   -2.0645 N.am      1 <0>        -0.7225
     41 C33         6.9768   -0.7627   -1.8784 C.2       1 <0>         0.5676
     42 O1          6.9977    0.2920   -2.4825 O.2       1 <0>        -0.5221
     43 H2         -0.9603    1.9042    0.0260 H         1 <0>         0.1274
     44 H3          1.1479    3.1721    0.0082 H         1 <0>         0.1312
     45 H4          3.3022    1.9845   -0.0200 H         1 <0>         0.1291
     46 H5          1.2184   -1.7603   -0.0194 H         1 <0>         0.1192
     47 H6         -0.9264   -0.5557    0.0083 H         1 <0>         0.1223
     48 H7          4.5272    0.4407   -1.6822 H         1 <0>         0.1560
     49 H8          2.1967   -0.0768    2.1103 H         1 <0>         0.1434
     50 H9          0.4773   -0.6989    3.7556 H         1 <0>         0.1355
     51 H10         1.6836   -4.7831    3.4991 H         1 <0>         0.1351
     52 H11         3.4014   -4.1827    1.8439 H         1 <0>         0.1417
     53 H12         0.2587   -4.0189    5.3041 H         1 <0>         0.1397
     54 H13        -0.2444   -2.3148    5.4114 H         1 <0>         0.1387
     55 H14        -2.0748   -1.5168    4.1020 H         1 <0>         0.1367
     56 H15        -1.0730   -1.8951    2.6809 H         1 <0>         0.1393
     57 H16        -3.4706   -1.7385    2.0653 H         1 <0>         0.1245
     58 H17        -2.8553   -3.3919    1.8231 H         1 <0>         0.0898
     59 H18        -4.4379   -2.3898    4.2350 H         1 <0>         0.1306
     60 H19        -4.3290   -4.7280    5.0024 H         1 <0>         0.1234
     61 H20        -3.3662   -5.1715    3.5715 H         1 <0>         0.0881
     62 H21        -1.9109   -4.8133    5.5480 H         1 <0>         0.1390
     63 H22        -2.5466   -3.1598    5.7163 H         1 <0>         0.1376
     64 H23        -9.1523   -4.8863    0.3181 H         1 <0>         0.1436
     65 H24       -11.3623   -4.0314   -0.4260 H         1 <0>         0.1455
     66 H25       -12.0205   -1.7197    0.2054 H         1 <0>         0.1450
     67 H26       -10.4782   -0.3458    1.5422 H         1 <0>         0.1668
     68 H27         8.0906   -2.2917    0.6415 H         1 <0>         0.1027
     69 H28         7.2083   -3.8244    0.4548 H         1 <0>         0.1130
     70 H29         8.9156   -3.3871   -1.3514 H         1 <0>         0.1034
     71 H30         7.2653   -3.6470   -1.9538 H         1 <0>         0.0727
     72 H31         8.6917   -1.4702   -2.6558 H         1 <0>         0.4131
     73 H32        -1.1523   -4.1987    3.3532 H         1 <0>         0.4220
@<TRIPOS>BOND
     1    1    6 ar
     2    1    2 ar
     3    1   43 1
     4    2    3 ar
     5    2   44 1
     6    3    4 ar
     7    3   45 1
     8    4    5 ar
     9    4    7 1
    10    5    6 ar
    11    5   46 1
    12    6   47 1
    13    7   12 ar
    14    7    8 ar
    15    8    9 ar
    16    8   48 1
    17    9   41 1
    18    9   10 ar
    19   10   11 ar
    20   10   38 1
    21   11   12 ar
    22   12   13 1
    23   13   18 ar
    24   13   14 ar
    25   14   15 ar
    26   14   49 1
    27   15   16 ar
    28   15   50 1
    29   16   17 ar
    30   16   19 1
    31   17   18 ar
    32   17   51 1
    33   18   52 1
    34   19   20 1
    35   19   53 1
    36   19   54 1
    37   20   25 1
    38   20   21 1
    39   20   73 1
    40   21   22 1
    41   21   55 1
    42   21   56 1
    43   22   23 1
    44   22   57 1
    45   22   58 1
    46   23   24 1
    47   23   59 1
    48   23   26 1
    49   24   25 1
    50   24   60 1
    51   24   61 1
    52   25   62 1
    53   25   63 1
    54   26   27 2
    55   26   31 1
    56   27   29 1
    57   28   31 1
    58   29   32 1
    59   29   30 2
    60   30   31 1
    61   32   37 ar
    62   32   33 ar
    63   33   34 ar
    64   33   64 1
    65   34   35 ar
    66   34   65 1
    67   35   36 ar
    68   35   66 1
    69   36   37 ar
    70   36   67 1
    71   38   39 1
    72   38   68 1
    73   38   69 1
    74   39   40 1
    75   39   70 1
    76   39   71 1
    77   40   41 am
    78   40   72 1
    79   41   42 2
@<TRIPOS>MOLECULE
CHEMBL261542
   71    77     0     0     0
SMALL
USER_CHARGES

@<TRIPOS>ATOM
      1 C1         -0.3307    0.5260   -0.9329 C.ar      1 <0>        -0.1007
      2 C2          0.7257    1.4181   -0.8884 C.ar      1 <0>        -0.1167
      3 C3          2.0100    0.9609   -0.6747 C.ar      1 <0>        -0.0753
      4 C4          2.2419   -0.4035   -0.5035 C.ar      1 <0>        -0.0516
      5 C5          1.1728   -1.2980   -0.5494 C.ar      1 <0>        -0.0914
      6 C6         -0.1069   -0.8287   -0.7637 C.ar      1 <0>        -0.1259
      7 C7          3.6183   -0.9009   -0.2742 C.ar      1 <0>         0.1585
      8 C8          3.8615   -1.8601    0.7403 C.ar      1 <0>         0.1332
      9 N1          5.0840   -2.3104    0.9528 N.ar      1 <0>        -0.4044
     10 C9          6.0979   -1.8588    0.2066 C.ar      1 <0>         0.0804
     11 C10         7.4085   -2.3237    0.4136 C.ar      1 <0>        -0.0828
     12 C11         8.4236   -1.8491   -0.3591 C.ar      1 <0>        -0.0898
     13 C12         8.1845   -0.9056   -1.3567 C.ar      1 <0>        -0.0863
     14 C13         6.9292   -0.4323   -1.5864 C.ar      1 <0>        -0.0849
     15 C14         5.8546   -0.8985   -0.8089 C.ar      1 <0>         0.0900
     16 N2          4.6113   -0.4524   -1.0195 N.ar      1 <0>        -0.4090
     17 C15         2.7381   -2.3595    1.5667 C.ar      1 <0>        -0.0009
     18 C16         1.8026   -1.4670    2.0895 C.ar      1 <0>        -0.0788
     19 C17         0.7584   -1.9382    2.8586 C.ar      1 <0>        -0.0951
     20 C18         0.6384   -3.2930    3.1115 C.ar      1 <0>        -0.1511
     21 C19         1.5632   -4.1833    2.5957 C.ar      1 <0>        -0.0922
     22 C20         2.6084   -3.7247    1.8204 C.ar      1 <0>        -0.0801
     23 C21        -0.5041   -3.8011    3.9527 C.3       1 <0>         0.0432
     24 N3         -1.6500   -4.1101    3.0870 N.4       1 <0>        -0.3827
     25 C22        -2.1365   -2.8743    2.4620 C.3       1 <0>        -0.0134
     26 C23        -3.2780   -3.2015    1.4969 C.3       1 <0>        -0.1354
     27 C24        -4.4191   -3.8670    2.2716 C.3       1 <0>        -0.0139
     28 C25        -3.8827   -5.1142    2.9801 C.3       1 <0>        -0.1391
     29 C26        -2.7187   -4.7162    3.8902 C.3       1 <0>        -0.0053
     30 C27        -5.5141   -4.2628    1.3149 C.2       1 <0>         0.0683
     31 C28        -5.5662   -5.4491    0.5834 C.2       1 <0>        -0.2432
     32 C29        -6.7112   -5.4315   -0.1624 C.2       1 <0>         0.1371
     33 N4         -7.3513   -4.2578    0.1045 N.pl3     1 <0>        -0.4597
     34 H1         -8.1929   -3.9651   -0.2787 H         1 <0>         0.4454
     35 N5         -6.5781   -3.5529    1.0359 N.2       1 <0>        -0.2623
     36 C30        -7.1705   -6.4896   -1.0885 C.ar      1 <0>         0.0017
     37 C31        -6.4221   -7.6576   -1.2738 C.ar      1 <0>        -0.1460
     38 C32        -6.8875   -8.6184   -2.1470 C.ar      1 <0>         0.1104
     39 N6         -8.0199   -8.4471   -2.8022 N.ar      1 <0>        -0.4741
     40 C33        -8.7557   -7.3614   -2.6567 C.ar      1 <0>         0.1140
     41 C34        -8.3683   -6.3530   -1.7992 C.ar      1 <0>        -0.1643
     42 H2         -1.3347    0.8890   -1.0960 H         1 <0>         0.1273
     43 H3          0.5449    2.4745   -1.0216 H         1 <0>         0.1315
     44 H4          2.8339    1.6583   -0.6406 H         1 <0>         0.1297
     45 H5          1.3463   -2.3558   -0.4178 H         1 <0>         0.1208
     46 H6         -0.9357   -1.5203   -0.7991 H         1 <0>         0.1235
     47 H7          7.6092   -3.0544    1.1831 H         1 <0>         0.1439
     48 H8          9.4290   -2.2086   -0.1965 H         1 <0>         0.1431
     49 H9          9.0073   -0.5446   -1.9560 H         1 <0>         0.1434
     50 H10         6.7593    0.2990   -2.3627 H         1 <0>         0.1451
     51 H11         1.8955   -0.4091    1.8930 H         1 <0>         0.1376
     52 H12         0.0336   -1.2480    3.2643 H         1 <0>         0.1365
     53 H13         1.4642   -5.2399    2.7966 H         1 <0>         0.1366
     54 H14         3.3271   -4.4212    1.4143 H         1 <0>         0.1391
     55 H15        -0.1938   -4.7029    4.4805 H         1 <0>         0.1391
     56 H16        -0.7906   -3.0374    4.6758 H         1 <0>         0.1373
     57 H17        -2.4975   -2.1949    3.2341 H         1 <0>         0.1316
     58 H18        -1.3224   -2.4002    1.9137 H         1 <0>         0.1359
     59 H19        -3.6390   -2.2825    1.0352 H         1 <0>         0.1150
     60 H20        -2.9180   -3.8807    0.7242 H         1 <0>         0.0924
     61 H21        -4.8135   -3.1694    3.0105 H         1 <0>         0.1051
     62 H22        -4.6758   -5.5624    3.5785 H         1 <0>         0.1172
     63 H23        -3.5352   -5.8332    2.2381 H         1 <0>         0.0944
     64 H24        -2.3345   -5.6018    4.3963 H         1 <0>         0.1351
     65 H25        -3.0673   -3.9975    4.6318 H         1 <0>         0.1320
     66 H26        -4.8320   -6.2408    0.6027 H         1 <0>         0.1526
     67 H27        -5.4939   -7.8042   -0.7414 H         1 <0>         0.1414
     68 H28        -6.3171   -9.5232   -2.2968 H         1 <0>         0.1655
     69 H29        -9.6758   -7.2630   -3.2135 H         1 <0>         0.1652
     70 H30        -8.9780   -5.4694   -1.6813 H         1 <0>         0.1337
     71 H31        -1.3624   -4.7574    2.3684 H         1 <0>         0.4225
@<TRIPOS>BOND
     1    1    6 ar
     2    1    2 ar
     3    1   42 1
     4    2    3 ar
     5    2   43 1
     6    3    4 ar
     7    3   44 1
     8    4    5 ar
     9    4    7 1
    10    5    6 ar
    11    5   45 1
    12    6   46 1
    13    7   16 ar
    14    7    8 ar
    15    8    9 ar
    16    8   17 1
    17    9   10 ar
    18   10   15 ar
    19   10   11 ar
    20   11   12 ar
    21   11   47 1
    22   12   13 ar
    23   12   48 1
    24   13   14 ar
    25   13   49 1
    26   14   15 ar
    27   14   50 1
    28   15   16 ar
    29   17   22 ar
    30   17   18 ar
    31   18   19 ar
    32   18   51 1
    33   19   20 ar
    34   19   52 1
    35   20   21 ar
    36   20   23 1
    37   21   22 ar
    38   21   53 1
    39   22   54 1
    40   23   24 1
    41   23   55 1
    42   23   56 1
    43   24   29 1
    44   24   25 1
    45   24   71 1
    46   25   26 1
    47   25   57 1
    48   25   58 1
    49   26   27 1
    50   26   59 1
    51   26   60 1
    52   27   28 1
    53   27   30 1
    54   27   61 1
    55   28   29 1
    56   28   62 1
    57   28   63 1
    58   29   64 1
    59   29   65 1
    60   30   35 2
    61   30   31 1
    62   31   32 2
    63   31   66 1
    64   32   33 1
    65   32   36 1
    66   33   34 1
    67   33   35 1
    68   36   41 ar
    69   36   37 ar
    70   37   38 ar
    71   37   67 1
    72   38   39 ar
    73   38   68 1
    74   39   40 ar
    75   40   41 ar
    76   40   69 1
    77   41   70 1
@<TRIPOS>MOLECULE
CHEMBL261542
   71    77     0     0     0
SMALL
USER_CHARGES

@<TRIPOS>ATOM
      1 C1         -0.3307    0.5260   -0.9329 C.ar      1 <0>        -0.1007
      2 C2          0.7257    1.4181   -0.8884 C.ar      1 <0>        -0.1161
      3 C3          2.0100    0.9609   -0.6747 C.ar      1 <0>        -0.0746
      4 C4          2.2419   -0.4035   -0.5035 C.ar      1 <0>        -0.0509
      5 C5          1.1728   -1.2980   -0.5494 C.ar      1 <0>        -0.0920
      6 C6         -0.1069   -0.8287   -0.7637 C.ar      1 <0>        -0.1268
      7 C7          3.6183   -0.9009   -0.2742 C.ar      1 <0>         0.1579
      8 C8          3.8615   -1.8601    0.7403 C.ar      1 <0>         0.1319
      9 N1          5.0840   -2.3104    0.9528 N.ar      1 <0>        -0.4039
     10 C9          6.0979   -1.8588    0.2066 C.ar      1 <0>         0.0805
     11 C10         7.4085   -2.3237    0.4136 C.ar      1 <0>        -0.0829
     12 C11         8.4236   -1.8491   -0.3591 C.ar      1 <0>        -0.0893
     13 C12         8.1845   -0.9056   -1.3567 C.ar      1 <0>        -0.0857
     14 C13         6.9292   -0.4323   -1.5864 C.ar      1 <0>        -0.0849
     15 C14         5.8546   -0.8985   -0.8089 C.ar      1 <0>         0.0903
     16 N2          4.6113   -0.4524   -1.0195 N.ar      1 <0>        -0.4084
     17 C15         2.7381   -2.3595    1.5667 C.ar      1 <0>         0.0008
     18 C16         1.8026   -1.4670    2.0895 C.ar      1 <0>        -0.0787
     19 C17         0.7584   -1.9382    2.8586 C.ar      1 <0>        -0.0953
     20 C18         0.6384   -3.2930    3.1115 C.ar      1 <0>        -0.1530
     21 C19         1.5632   -4.1833    2.5957 C.ar      1 <0>        -0.0922
     22 C20         2.6084   -3.7247    1.8204 C.ar      1 <0>        -0.0801
     23 C21        -0.5041   -3.8011    3.9527 C.3       1 <0>         0.0435
     24 N3         -1.6500   -4.1101    3.0870 N.4       1 <0>        -0.3836
     25 C22        -2.1365   -2.8743    2.4620 C.3       1 <0>        -0.0126
     26 C23        -3.2780   -3.2015    1.4969 C.3       1 <0>        -0.1461
     27 C24        -4.4191   -3.8670    2.2716 C.3       1 <0>        -0.0310
     28 C25        -3.8827   -5.1142    2.9801 C.3       1 <0>        -0.1407
     29 C26        -2.7187   -4.7162    3.8902 C.3       1 <0>        -0.0058
     30 C27        -5.5141   -4.2628    1.3149 C.2       1 <0>         0.0761
     31 C28        -6.8398   -4.2416    1.5727 C.2       1 <0>        -0.2309
     32 C29        -7.5117   -4.6854    0.4168 C.2       1 <0>         0.1194
     33 N4         -6.6056   -4.9607   -0.4977 N.2       1 <0>        -0.2572
     34 H1         -4.4925   -4.8053   -0.4068 H         1 <0>         0.4379
     35 N5         -5.3427   -4.6954    0.0471 N.pl3     1 <0>        -0.4663
     36 C30        -8.9807   -4.8193    0.2582 C.ar      1 <0>         0.0173
     37 C31        -9.8485   -4.4902    1.3033 C.ar      1 <0>        -0.1496
     38 C32       -11.2079   -4.6296    1.1136 C.ar      1 <0>         0.1036
     39 N6        -11.6901   -5.0668   -0.0340 N.ar      1 <0>        -0.4761
     40 C33       -10.9058   -5.3882   -1.0450 C.ar      1 <0>         0.1047
     41 C34        -9.5349   -5.2726   -0.9422 C.ar      1 <0>        -0.1456
     42 H2         -1.3347    0.8890   -1.0960 H         1 <0>         0.1274
     43 H3          0.5449    2.4745   -1.0216 H         1 <0>         0.1321
     44 H4          2.8339    1.6583   -0.6406 H         1 <0>         0.1302
     45 H5          1.3463   -2.3558   -0.4178 H         1 <0>         0.1202
     46 H6         -0.9357   -1.5203   -0.7991 H         1 <0>         0.1218
     47 H7          7.6092   -3.0544    1.1831 H         1 <0>         0.1440
     48 H8          9.4290   -2.2086   -0.1965 H         1 <0>         0.1434
     49 H9          9.0073   -0.5446   -1.9560 H         1 <0>         0.1438
     50 H10         6.7593    0.2990   -2.3627 H         1 <0>         0.1455
     51 H11         1.8955   -0.4091    1.8930 H         1 <0>         0.1381
     52 H12         0.0336   -1.2480    3.2643 H         1 <0>         0.1366
     53 H13         1.4642   -5.2399    2.7966 H         1 <0>         0.1364
     54 H14         3.3271   -4.4212    1.4143 H         1 <0>         0.1394
     55 H15        -0.1938   -4.7029    4.4805 H         1 <0>         0.1397
     56 H16        -0.7906   -3.0374    4.6758 H         1 <0>         0.1384
     57 H17        -2.4975   -2.1949    3.2341 H         1 <0>         0.1348
     58 H18        -1.3224   -2.4002    1.9137 H         1 <0>         0.1378
     59 H19        -3.6390   -2.2825    1.0352 H         1 <0>         0.1200
     60 H20        -2.9180   -3.8807    0.7242 H         1 <0>         0.0846
     61 H21        -4.8135   -3.1694    3.0105 H         1 <0>         0.1180
     62 H22        -4.6758   -5.5624    3.5785 H         1 <0>         0.1214
     63 H23        -3.5352   -5.8332    2.2381 H         1 <0>         0.0887
     64 H24        -2.3345   -5.6018    4.3963 H         1 <0>         0.1361
     65 H25        -3.0673   -3.9975    4.6318 H         1 <0>         0.1346
     66 H26        -7.3025   -3.9386    2.5003 H         1 <0>         0.1558
     67 H27        -9.4606   -4.1324    2.2456 H         1 <0>         0.1391
     68 H28       -11.8863   -4.3778    1.9153 H         1 <0>         0.1629
     69 H29       -11.3430   -5.7424   -1.9669 H         1 <0>         0.1627
     70 H30        -8.8990   -5.5329   -1.7754 H         1 <0>         0.1415
     71 H31        -1.3624   -4.7574    2.3684 H         1 <0>         0.4218
@<TRIPOS>BOND
     1    1    6 ar
     2    1    2 ar
     3    1   42 1
     4    2    3 ar
     5    2   43 1
     6    3    4 ar
     7    3   44 1
     8    4    5 ar
     9    4    7 1
    10    5    6 ar
    11    5   45 1
    12    6   46 1
    13    7   16 ar
    14    7    8 ar
    15    8    9 ar
    16    8   17 1
    17    9   10 ar
    18   10   15 ar
    19   10   11 ar
    20   11   12 ar
    21   11   47 1
    22   12   13 ar
    23   12   48 1
    24   13   14 ar
    25   13   49 1
    26   14   15 ar
    27   14   50 1
    28   15   16 ar
    29   17   22 ar
    30   17   18 ar
    31   18   19 ar
    32   18   51 1
    33   19   20 ar
    34   19   52 1
    35   20   21 ar
    36   20   23 1
    37   21   22 ar
    38   21   53 1
    39   22   54 1
    40   23   24 1
    41   23   55 1
    42   23   56 1
    43   24   29 1
    44   24   25 1
    45   24   71 1
    46   25   26 1
    47   25   57 1
    48   25   58 1
    49   26   27 1
    50   26   59 1
    51   26   60 1
    52   27   28 1
    53   27   61 1
    54   27   30 1
    55   28   29 1
    56   28   62 1
    57   28   63 1
    58   29   64 1
    59   29   65 1
    60   30   31 2
    61   30   35 1
    62   31   32 1
    63   31   66 1
    64   32   33 2
    65   32   36 1
    66   33   35 1
    67   34   35 1
    68   36   41 ar
    69   36   37 ar
    70   37   38 ar
    71   37   67 1
    72   38   39 ar
    73   38   68 1
    74   39   40 ar
    75   40   41 ar
    76   40   69 1
    77   41   70 1
@<TRIPOS>MOLECULE
CHEMBL261540
   71    77     0     0     0
SMALL
USER_CHARGES

@<TRIPOS>ATOM
      1 C1         -0.0167    1.3791    0.0096 C.ar      1 <0>        -0.1096
      2 C2          1.1686    2.0924    0.0021 C.ar      1 <0>        -0.1120
      3 C3          2.3774    1.4269   -0.0129 C.ar      1 <0>        -0.1036
      4 C4          2.4026    0.0330   -0.0206 C.ar      1 <0>        -0.0493
      5 C5          1.2049   -0.6804   -0.0130 C.ar      1 <0>        -0.0994
      6 C6          0.0021   -0.0041    0.0020 C.ar      1 <0>        -0.1215
      7 C7          3.6978   -0.6877   -0.0373 C.ar      1 <0>        -0.0977
      8 C8          4.6763   -0.3476   -0.9576 C.ar      1 <0>        -0.0224
      9 C9          5.8866   -1.0617   -0.9306 C.ar      1 <0>        -0.1488
     10 C10         6.9249   -0.7709   -1.8343 C.ar      1 <0>        -0.0423
     11 C11         8.0755   -1.5042   -1.7522 C.ar      1 <0>        -0.1695
     12 C12         8.1910   -2.5057   -0.7916 C.ar      1 <0>         0.1691
     13 N1          7.2207   -2.7734    0.0487 N.ar      1 <0>        -0.4655
     14 C13         6.0680   -2.0947    0.0240 C.ar      1 <0>         0.3110
     15 N2          5.0919   -2.3827    0.8895 N.ar      1 <0>        -0.4468
     16 C14         3.9497   -1.7249    0.8891 C.ar      1 <0>         0.2181
     17 C15         2.9058   -2.0841    1.8768 C.ar      1 <0>        -0.0125
     18 C16         2.0780   -1.0970    2.4110 C.ar      1 <0>        -0.0802
     19 C17         1.1071   -1.4378    3.3303 C.ar      1 <0>        -0.1007
     20 C18         0.9539   -2.7557    3.7223 C.ar      1 <0>        -0.1491
     21 C19         1.7720   -3.7394    3.1960 C.ar      1 <0>        -0.0968
     22 C20         2.7430   -3.4117    2.2720 C.ar      1 <0>        -0.0725
     23 C21        -0.1081   -3.1211    4.7271 C.3       1 <0>         0.0430
     24 N3         -1.3578   -3.4409    4.0243 N.4       1 <0>        -0.3824
     25 C22        -1.8543   -2.2403    3.3413 C.3       1 <0>        -0.0129
     26 C23        -3.1119   -2.5872    2.5415 C.3       1 <0>        -0.1352
     27 C24        -4.1873   -3.1153    3.4953 C.3       1 <0>        -0.0139
     28 C25        -3.6322   -4.3226    4.2566 C.3       1 <0>        -0.1391
     29 C26        -2.3554   -3.9114    4.9928 C.3       1 <0>        -0.0054
     30 C27        -5.4009   -3.5323    2.7052 C.2       1 <0>         0.0685
     31 C28        -5.5905   -4.7743    2.0997 C.2       1 <0>        -0.2431
     32 C29        -6.8106   -4.7586    1.4845 C.2       1 <0>         0.1371
     33 N4         -7.3613   -3.5314    1.7066 N.pl3     1 <0>        -0.4599
     34 H1         -8.2265   -3.2270    1.3911 H         1 <0>         0.4454
     35 N5         -6.4556   -2.7911    2.4773 N.2       1 <0>        -0.2625
     36 C30        -7.4205   -5.8675    0.7186 C.ar      1 <0>         0.0017
     37 C31        -6.7528   -7.0878    0.5648 C.ar      1 <0>        -0.1460
     38 C32        -7.3582   -8.0948   -0.1574 C.ar      1 <0>         0.1105
     39 N6         -8.5485   -7.9189   -0.6989 N.ar      1 <0>        -0.4742
     40 C33        -9.2120   -6.7847   -0.5782 C.ar      1 <0>         0.1140
     41 C34        -8.6836   -5.7273    0.1325 C.ar      1 <0>        -0.1644
     42 H2         -0.9603    1.9042    0.0260 H         1 <0>         0.1262
     43 H3          1.1478    3.1722    0.0077 H         1 <0>         0.1299
     44 H4          3.3021    1.9847   -0.0191 H         1 <0>         0.1275
     45 H5          1.2183   -1.7603   -0.0193 H         1 <0>         0.1205
     46 H6         -0.9264   -0.5557    0.0082 H         1 <0>         0.1225
     47 H7          4.5135    0.4431   -1.6750 H         1 <0>         0.1508
     48 H8          6.8159    0.0098   -2.5725 H         1 <0>         0.1480
     49 H9          8.8924   -1.3077   -2.4307 H         1 <0>         0.1509
     50 H10         9.1052   -3.0782   -0.7375 H         1 <0>         0.1738
     51 H11         2.1969   -0.0678    2.1059 H         1 <0>         0.1429
     52 H12         0.4657   -0.6742    3.7449 H         1 <0>         0.1348
     53 H13         1.6480   -4.7664    3.5061 H         1 <0>         0.1359
     54 H14         3.3781   -4.1811    1.8584 H         1 <0>         0.1426
     55 H15         0.2181   -3.9884    5.3013 H         1 <0>         0.1391
     56 H16        -0.2750   -2.2810    5.4012 H         1 <0>         0.1369
     57 H17        -2.0935   -1.4754    4.0800 H         1 <0>         0.1313
     58 H18        -1.0866   -1.8638    2.6652 H         1 <0>         0.1355
     59 H19        -3.4799   -1.6941    2.0366 H         1 <0>         0.1144
     60 H20        -2.8736   -3.3520    1.8023 H         1 <0>         0.0922
     61 H21        -4.4626   -2.3334    4.2030 H         1 <0>         0.1051
     62 H22        -4.3723   -4.6700    4.9775 H         1 <0>         0.1173
     63 H23        -3.4048   -5.1234    3.5529 H         1 <0>         0.0944
     64 H24        -1.9577   -4.7687    5.5360 H         1 <0>         0.1353
     65 H25        -2.5839   -3.1108    5.6963 H         1 <0>         0.1319
     66 H26        -4.8962   -5.6014    2.1142 H         1 <0>         0.1527
     67 H27        -5.7780   -7.2386    1.0047 H         1 <0>         0.1415
     68 H28        -6.8510   -9.0402   -0.2816 H         1 <0>         0.1656
     69 H29       -10.1838   -6.6845   -1.0385 H         1 <0>         0.1652
     70 H30        -9.2344   -4.8036    0.2314 H         1 <0>         0.1337
     71 H31        -1.1838   -4.1650    3.3435 H         1 <0>         0.4226
@<TRIPOS>BOND
     1    1    6 ar
     2    1    2 ar
     3    1   42 1
     4    2    3 ar
     5    2   43 1
     6    3    4 ar
     7    3   44 1
     8    4    5 ar
     9    4    7 1
    10    5    6 ar
    11    5   45 1
    12    6   46 1
    13    7   16 ar
    14    7    8 ar
    15    8    9 ar
    16    8   47 1
    17    9   14 ar
    18    9   10 ar
    19   10   11 ar
    20   10   48 1
    21   11   12 ar
    22   11   49 1
    23   12   13 ar
    24   12   50 1
    25   13   14 ar
    26   14   15 ar
    27   15   16 ar
    28   16   17 1
    29   17   22 ar
    30   17   18 ar
    31   18   19 ar
    32   18   51 1
    33   19   20 ar
    34   19   52 1
    35   20   21 ar
    36   20   23 1
    37   21   22 ar
    38   21   53 1
    39   22   54 1
    40   23   24 1
    41   23   55 1
    42   23   56 1
    43   24   29 1
    44   24   25 1
    45   24   71 1
    46   25   26 1
    47   25   57 1
    48   25   58 1
    49   26   27 1
    50   26   59 1
    51   26   60 1
    52   27   28 1
    53   27   30 1
    54   27   61 1
    55   28   29 1
    56   28   62 1
    57   28   63 1
    58   29   64 1
    59   29   65 1
    60   30   35 2
    61   30   31 1
    62   31   32 2
    63   31   66 1
    64   32   33 1
    65   32   36 1
    66   33   34 1
    67   33   35 1
    68   36   41 ar
    69   36   37 ar
    70   37   38 ar
    71   37   67 1
    72   38   39 ar
    73   38   68 1
    74   39   40 ar
    75   40   41 ar
    76   40   69 1
    77   41   70 1
@<TRIPOS>MOLECULE
CHEMBL261540
   71    77     0     0     0
SMALL
USER_CHARGES

@<TRIPOS>ATOM
      1 C1         -0.0167    1.3791    0.0096 C.ar      1 <0>        -0.1097
      2 C2          1.1686    2.0924    0.0021 C.ar      1 <0>        -0.1113
      3 C3          2.3774    1.4269   -0.0129 C.ar      1 <0>        -0.1030
      4 C4          2.4026    0.0330   -0.0206 C.ar      1 <0>        -0.0486
      5 C5          1.2049   -0.6804   -0.0130 C.ar      1 <0>        -0.1001
      6 C6          0.0021   -0.0041    0.0020 C.ar      1 <0>        -0.1223
      7 C7          3.6978   -0.6877   -0.0373 C.ar      1 <0>        -0.0985
      8 C8          4.6763   -0.3476   -0.9576 C.ar      1 <0>        -0.0218
      9 C9          5.8866   -1.0617   -0.9306 C.ar      1 <0>        -0.1485
     10 C10         6.9249   -0.7709   -1.8343 C.ar      1 <0>        -0.0423
     11 C11         8.0755   -1.5042   -1.7522 C.ar      1 <0>        -0.1689
     12 C12         8.1910   -2.5057   -0.7916 C.ar      1 <0>         0.1696
     13 N1          7.2207   -2.7734    0.0487 N.ar      1 <0>        -0.4655
     14 C13         6.0680   -2.0947    0.0240 C.ar      1 <0>         0.3110
     15 N2          5.0919   -2.3827    0.8895 N.ar      1 <0>        -0.4465
     16 C14         3.9497   -1.7249    0.8891 C.ar      1 <0>         0.2170
     17 C15         2.9058   -2.0841    1.8768 C.ar      1 <0>        -0.0109
     18 C16         2.0780   -1.0970    2.4110 C.ar      1 <0>        -0.0800
     19 C17         1.1071   -1.4378    3.3303 C.ar      1 <0>        -0.1009
     20 C18         0.9539   -2.7557    3.7223 C.ar      1 <0>        -0.1511
     21 C19         1.7720   -3.7394    3.1960 C.ar      1 <0>        -0.0968
     22 C20         2.7430   -3.4117    2.2720 C.ar      1 <0>        -0.0726
     23 C21        -0.1081   -3.1211    4.7271 C.3       1 <0>         0.0433
     24 N3         -1.3578   -3.4409    4.0243 N.4       1 <0>        -0.3834
     25 C22        -1.8543   -2.2403    3.3413 C.3       1 <0>        -0.0121
     26 C23        -3.1119   -2.5872    2.5415 C.3       1 <0>        -0.1458
     27 C24        -4.1873   -3.1153    3.4953 C.3       1 <0>        -0.0310
     28 C25        -3.6322   -4.3226    4.2566 C.3       1 <0>        -0.1407
     29 C26        -2.3554   -3.9114    4.9928 C.3       1 <0>        -0.0059
     30 C27        -5.4009   -3.5323    2.7052 C.2       1 <0>         0.0762
     31 C28        -6.6864   -3.4132    3.1023 C.2       1 <0>        -0.2309
     32 C29        -7.5048   -3.9196    2.0737 C.2       1 <0>         0.1193
     33 N4         -6.7220   -4.3263    1.0964 N.2       1 <0>        -0.2573
     34 H1         -4.6074   -4.2832    0.9421 H         1 <0>         0.4379
     35 N5         -5.3946   -4.0853    1.4731 N.pl3     1 <0>        -0.4663
     36 C30        -8.9870   -3.9839    2.0892 C.ar      1 <0>         0.0174
     37 C31        -9.7145   -3.5142    3.1864 C.ar      1 <0>        -0.1495
     38 C32       -11.0916   -3.5929    3.1596 C.ar      1 <0>         0.1036
     39 N6        -11.7206   -4.1028    2.1180 N.ar      1 <0>        -0.4761
     40 C33       -11.0717   -4.5570    1.0628 C.ar      1 <0>         0.1046
     41 C34        -9.6941   -4.5104    1.0046 C.ar      1 <0>        -0.1456
     42 H2         -0.9603    1.9042    0.0260 H         1 <0>         0.1263
     43 H3          1.1478    3.1722    0.0077 H         1 <0>         0.1304
     44 H4          3.3021    1.9847   -0.0191 H         1 <0>         0.1280
     45 H5          1.2183   -1.7603   -0.0193 H         1 <0>         0.1199
     46 H6         -0.9264   -0.5557    0.0082 H         1 <0>         0.1213
     47 H7          4.5135    0.4431   -1.6750 H         1 <0>         0.1511
     48 H8          6.8159    0.0098   -2.5725 H         1 <0>         0.1483
     49 H9          8.8924   -1.3077   -2.4307 H         1 <0>         0.1513
     50 H10         9.1052   -3.0782   -0.7375 H         1 <0>         0.1742
     51 H11         2.1969   -0.0678    2.1059 H         1 <0>         0.1434
     52 H12         0.4657   -0.6742    3.7449 H         1 <0>         0.1349
     53 H13         1.6480   -4.7664    3.5061 H         1 <0>         0.1357
     54 H14         3.3781   -4.1811    1.8584 H         1 <0>         0.1430
     55 H15         0.2181   -3.9884    5.3013 H         1 <0>         0.1397
     56 H16        -0.2750   -2.2810    5.4012 H         1 <0>         0.1380
     57 H17        -2.0935   -1.4754    4.0800 H         1 <0>         0.1344
     58 H18        -1.0866   -1.8638    2.6652 H         1 <0>         0.1374
     59 H19        -3.4799   -1.6941    2.0366 H         1 <0>         0.1193
     60 H20        -2.8736   -3.3520    1.8023 H         1 <0>         0.0845
     61 H21        -4.4626   -2.3334    4.2030 H         1 <0>         0.1179
     62 H22        -4.3723   -4.6700    4.9775 H         1 <0>         0.1215
     63 H23        -3.4048   -5.1234    3.5529 H         1 <0>         0.0887
     64 H24        -1.9577   -4.7687    5.5360 H         1 <0>         0.1363
     65 H25        -2.5839   -3.1108    5.6963 H         1 <0>         0.1345
     66 H26        -7.0263   -3.0029    4.0418 H         1 <0>         0.1559
     67 H27        -9.2060   -3.0962    4.0426 H         1 <0>         0.1392
     68 H28       -11.6623   -3.2325    4.0027 H         1 <0>         0.1629
     69 H29       -11.6266   -4.9668    0.2318 H         1 <0>         0.1627
     70 H30        -9.1696   -4.8796    0.1357 H         1 <0>         0.1415
     71 H31        -1.1838   -4.1650    3.3435 H         1 <0>         0.4219
@<TRIPOS>BOND
     1    1    6 ar
     2    1    2 ar
     3    1   42 1
     4    2    3 ar
     5    2   43 1
     6    3    4 ar
     7    3   44 1
     8    4    5 ar
     9    4    7 1
    10    5    6 ar
    11    5   45 1
    12    6   46 1
    13    7   16 ar
    14    7    8 ar
    15    8    9 ar
    16    8   47 1
    17    9   14 ar
    18    9   10 ar
    19   10   11 ar
    20   10   48 1
    21   11   12 ar
    22   11   49 1
    23   12   13 ar
    24   12   50 1
    25   13   14 ar
    26   14   15 ar
    27   15   16 ar
    28   16   17 1
    29   17   22 ar
    30   17   18 ar
    31   18   19 ar
    32   18   51 1
    33   19   20 ar
    34   19   52 1
    35   20   21 ar
    36   20   23 1
    37   21   22 ar
    38   21   53 1
    39   22   54 1
    40   23   24 1
    41   23   55 1
    42   23   56 1
    43   24   29 1
    44   24   25 1
    45   24   71 1
    46   25   26 1
    47   25   57 1
    48   25   58 1
    49   26   27 1
    50   26   59 1
    51   26   60 1
    52   27   28 1
    53   27   61 1
    54   27   30 1
    55   28   29 1
    56   28   62 1
    57   28   63 1
    58   29   64 1
    59   29   65 1
    60   30   31 2
    61   30   35 1
    62   31   32 1
    63   31   66 1
    64   32   33 2
    65   32   36 1
    66   33   35 1
    67   34   35 1
    68   36   41 ar
    69   36   37 ar
    70   37   38 ar
    71   37   67 1
    72   38   39 ar
    73   38   68 1
    74   39   40 ar
    75   40   41 ar
    76   40   69 1
    77   41   70 1
@<TRIPOS>MOLECULE
CHEMBL226898
   52    55     0     0     0
SMALL
USER_CHARGES

@<TRIPOS>ATOM
      1 C1         -0.0184    1.5028    0.0103 C.3       1 <0>        -0.0831
      2 C2          0.0021   -0.0041    0.0020 C.2       1 <0>         0.1049
      3 C3          0.0080   -0.8219   -1.1499 C.ar      1 <0>        -0.1397
      4 C4         -0.0022   -0.5793   -2.5294 C.ar      1 <0>        -0.0577
      5 C5          0.0088   -1.6623   -3.3937 C.ar      1 <0>         0.0922
      6 N1          0.0283   -2.9109   -2.9313 N.ar      1 <0>        -0.4344
      7 C6          0.0384   -3.1855   -1.6462 C.ar      1 <0>         0.1199
      8 C7          0.0290   -2.1610   -0.7043 C.ar      1 <0>         0.0815
      9 N2          0.0351   -2.1145    0.6648 N.pl3     1 <0>        -0.4842
     10 H1          0.0493   -2.8801    1.2603 H         1 <0>         0.4501
     11 N3          0.0229   -0.7695    1.0556 N.2       1 <0>        -0.2286
     12 C8         -0.0016   -1.4268   -4.8585 C.ar      1 <0>        -0.0321
     13 C9         -0.1016   -2.4990   -5.7484 C.ar      1 <0>        -0.0689
     14 C10        -0.1076   -2.2252   -7.1100 C.ar      1 <0>         0.0616
     15 C11        -0.0149   -0.9070   -7.5356 C.ar      1 <0>         0.0254
     16 N4          0.0787    0.0809   -6.6674 N.ar      1 <0>        -0.4393
     17 C12         0.0823   -0.1325   -5.3675 C.ar      1 <0>         0.0910
     18 O1         -0.2027   -3.2352   -8.0146 O.3       1 <0>        -0.3212
     19 C13        -0.2022   -2.8708   -9.3963 C.3       1 <0>         0.0270
     20 C14        -0.3155   -4.1312  -10.2562 C.3       1 <0>         0.0419
     21 H2          0.4811   -4.8258   -9.9896 H         1 <0>         0.1577
     22 C15        -0.1898   -3.7537  -11.7336 C.3       1 <0>        -0.0977
     23 C16        -0.1781   -5.0055  -12.5726 C.ar      1 <0>        -0.1281
     24 C17         1.0198   -5.6315  -12.8637 C.ar      1 <0>        -0.0703
     25 C18         1.0305   -6.7795  -13.6333 C.ar      1 <0>        -0.1021
     26 C19        -0.1568   -7.3021  -14.1116 C.ar      1 <0>        -0.0548
     27 C20        -1.3544   -6.6769  -13.8199 C.ar      1 <0>        -0.1678
     28 C21        -1.3654   -5.5309  -13.0465 C.ar      1 <0>        -0.0923
     29 C22        -2.6484   -7.2463  -14.3417 C.3       1 <0>         0.5052
     30 F1         -2.3830   -8.3993  -15.0883 F         1 <0>        -0.1686
     31 F2         -3.4831   -7.5689  -13.2664 F         1 <0>        -0.1774
     32 F3         -3.2803   -6.2993  -15.1548 F         1 <0>        -0.1703
     33 N5         -1.6187   -4.7678  -10.0227 N.4       1 <0>        -0.6384
     34 H3          1.0042    1.8801    0.0026 H         1 <0>         0.0893
     35 H4         -0.5455    1.8639   -0.8728 H         1 <0>         0.0850
     36 H5         -0.5286    1.8543    0.9071 H         1 <0>         0.0861
     37 H6         -0.0186    0.4307   -2.9115 H         1 <0>         0.1474
     38 H7          0.0541   -4.2144   -1.3183 H         1 <0>         0.1694
     39 H8         -0.1721   -3.5143   -5.3871 H         1 <0>         0.1565
     40 H9         -0.0190   -0.6876   -8.5931 H         1 <0>         0.1582
     41 H10         0.1558    0.7045   -4.6890 H         1 <0>         0.1680
     42 H11        -1.0488   -2.2150   -9.5995 H         1 <0>         0.0936
     43 H12         0.7256   -2.3506   -9.6346 H         1 <0>         0.1154
     44 H13        -1.0360   -3.1304  -12.0226 H         1 <0>         0.1085
     45 H14         0.7376   -3.2027  -11.8901 H         1 <0>         0.1318
     46 H15         1.9472   -5.2232  -12.4900 H         1 <0>         0.1431
     47 H16         1.9662   -7.2681  -13.8612 H         1 <0>         0.1480
     48 H17        -0.1484   -8.1988  -14.7135 H         1 <0>         0.1498
     49 H18        -2.3016   -5.0444  -12.8154 H         1 <0>         0.1352
     50 H19        -2.3561   -4.1248  -10.2695 H         1 <0>         0.4334
     51 H20        -1.6934   -5.5990  -10.5897 H         1 <0>         0.4350
     52 H21        -1.7016   -5.0167   -9.0484 H         1 <0>         0.4449
@<TRIPOS>BOND
     1    1    2 1
     2    1   34 1
     3    1   35 1
     4    1   36 1
     5    2   11 2
     6    2    3 1
     7    3    8 ar
     8    3    4 ar
     9    4    5 ar
    10    4   37 1
    11    5    6 ar
    12    5   12 1
    13    6    7 ar
    14    7    8 ar
    15    7   38 1
    16    8    9 1
    17    9   10 1
    18    9   11 1
    19   12   17 ar
    20   12   13 ar
    21   13   14 ar
    22   13   39 1
    23   14   15 ar
    24   14   18 1
    25   15   16 ar
    26   15   40 1
    27   16   17 ar
    28   17   41 1
    29   18   19 1
    30   19   20 1
    31   19   42 1
    32   19   43 1
    33   20   21 1
    34   20   22 1
    35   20   33 1
    36   22   23 1
    37   22   44 1
    38   22   45 1
    39   23   28 ar
    40   23   24 ar
    41   24   25 ar
    42   24   46 1
    43   25   26 ar
    44   25   47 1
    45   26   27 ar
    46   26   48 1
    47   27   28 ar
    48   27   29 1
    49   28   49 1
    50   29   30 1
    51   29   31 1
    52   29   32 1
    53   33   50 1
    54   33   51 1
    55   33   52 1
@<TRIPOS>MOLECULE
CHEMBL226849
   57    61     0     0     0
SMALL
USER_CHARGES

@<TRIPOS>ATOM
      1 C1          2.5314    4.3250    0.0190 C.ar      1 <0>        -0.1010
      2 C2          3.8489    4.7390    0.0792 C.ar      1 <0>        -0.1077
      3 C3          4.8681    3.8051    0.0698 C.ar      1 <0>        -0.1400
      4 C4          4.5697    2.4571    0.0008 C.ar      1 <0>        -0.1308
      5 C5          3.2521    2.0430   -0.0585 C.ar      1 <0>        -0.1027
      6 C6          2.2331    2.9770   -0.0506 C.ar      1 <0>        -0.1053
      7 C7          5.6807    1.4390   -0.0104 C.3       1 <0>        -0.0970
      8 C8          6.0126    1.0305    1.4262 C.3       1 <0>         0.0437
      9 H1          5.1075    0.6807    1.9227 H         1 <0>         0.1554
     10 C9          7.0519   -0.0922    1.4100 C.3       1 <0>         0.0272
     11 O1          7.2757   -0.5534    2.7439 O.3       1 <0>        -0.3225
     12 C10         8.1778   -1.5569    2.9067 C.ar      1 <0>         0.0707
     13 C11         8.4457   -2.0633    4.1723 C.ar      1 <0>        -0.0987
     14 C12         9.3802   -3.0946    4.2877 C.ar      1 <0>        -0.0294
     15 C13        10.0039   -3.5728    3.1367 C.ar      1 <0>         0.0823
     16 N1          9.7196   -3.0626    1.9561 N.ar      1 <0>        -0.4357
     17 C14         8.8385   -2.0924    1.8099 C.ar      1 <0>         0.0174
     18 C15         9.7047   -3.6720    5.6155 C.ar      1 <0>        -0.0909
     19 C16         9.0708   -3.1899    6.7620 C.ar      1 <0>        -0.0597
     20 C17         9.3655   -3.7190    7.9991 C.ar      1 <0>        -0.1382
     21 C18        10.3005   -4.7432    8.1199 C.ar      1 <0>         0.1702
     22 C19        10.9380   -5.2290    6.9689 C.ar      1 <0>        -0.1040
     23 C20        10.6372   -4.6993    5.7203 C.ar      1 <0>        -0.0372
     24 C21        11.8592   -6.2955    7.4214 C.2       1 <0>        -0.1556
     25 C22        12.7015   -7.0652    6.6421 C.2       1 <0>         0.0581
     26 C23        12.5994   -7.0196    5.2371 C.2       1 <0>        -0.0266
     27 C24        13.6485   -7.1065    4.3398 C.2       1 <0>        -0.1430
     28 C25        13.0858   -7.0169    3.0595 C.2       1 <0>        -0.2085
     29 C26        11.7490   -6.8820    3.2174 C.2       1 <0>        -0.0257
     30 O2         11.4595   -6.8890    4.5256 O.3       1 <0>        -0.1575
     31 C27        11.6840   -6.3582    8.8783 C.2       1 <0>         0.5618
     32 O3         12.2659   -7.1128    9.6373 O.2       1 <0>        -0.4870
     33 N2         10.7699   -5.4375    9.2276 N.am      1 <0>        -0.6528
     34 N3          6.5531    2.1877    2.1520 N.4       1 <0>        -0.6366
     35 H2          1.7351    5.0544    0.0308 H         1 <0>         0.1330
     36 H3          4.0821    5.7922    0.1331 H         1 <0>         0.1326
     37 H4          5.8974    4.1287    0.1161 H         1 <0>         0.1228
     38 H5          3.0190    0.9899   -0.1128 H         1 <0>         0.1308
     39 H6          1.2037    2.6535   -0.0973 H         1 <0>         0.1335
     40 H7          5.3637    0.5614   -0.5737 H         1 <0>         0.1255
     41 H8          6.5650    1.8714   -0.4786 H         1 <0>         0.1038
     42 H9          6.6869   -0.9164    0.7971 H         1 <0>         0.1145
     43 H10         7.9865    0.2838    0.9940 H         1 <0>         0.0929
     44 H11         7.9446   -1.6695    5.0442 H         1 <0>         0.1491
     45 H12        10.7283   -4.3700    3.2136 H         1 <0>         0.1619
     46 H13         8.6315   -1.7058    0.8229 H         1 <0>         0.1576
     47 H14         8.3439   -2.3955    6.6784 H         1 <0>         0.1340
     48 H15         8.8693   -3.3375    8.8791 H         1 <0>         0.1367
     49 H16        11.1275   -5.0800    4.8364 H         1 <0>         0.1418
     50 H17        13.4381   -7.7018    7.1096 H         1 <0>         0.1706
     51 H18        14.6954   -7.2210    4.5789 H         1 <0>         0.1621
     52 H19        13.6200   -7.0491    2.1214 H         1 <0>         0.1592
     53 H20        11.0300   -6.7876    2.4171 H         1 <0>         0.2101
     54 H21        10.4756   -5.2774   10.1380 H         1 <0>         0.4233
     55 H22         5.8677    2.9281    2.1626 H         1 <0>         0.4366
     56 H23         6.7719    1.9183    3.0994 H         1 <0>         0.4423
     57 H24         7.3909    2.5115    1.6923 H         1 <0>         0.4324
@<TRIPOS>BOND
     1    1    6 ar
     2    1    2 ar
     3    1   35 1
     4    2    3 ar
     5    2   36 1
     6    3    4 ar
     7    3   37 1
     8    4    5 ar
     9    4    7 1
    10    5    6 ar
    11    5   38 1
    12    6   39 1
    13    7    8 1
    14    7   40 1
    15    7   41 1
    16    8    9 1
    17    8   10 1
    18    8   34 1
    19   10   11 1
    20   10   42 1
    21   10   43 1
    22   11   12 1
    23   12   17 ar
    24   12   13 ar
    25   13   14 ar
    26   13   44 1
    27   14   15 ar
    28   14   18 1
    29   15   16 ar
    30   15   45 1
    31   16   17 ar
    32   17   46 1
    33   18   23 ar
    34   18   19 ar
    35   19   20 ar
    36   19   47 1
    37   20   21 ar
    38   20   48 1
    39   21   33 1
    40   21   22 ar
    41   22   23 ar
    42   22   24 1
    43   23   49 1
    44   24   25 2
    45   24   31 1
    46   25   26 1
    47   25   50 1
    48   26   30 1
    49   26   27 2
    50   27   28 1
    51   27   51 1
    52   28   29 2
    53   28   52 1
    54   29   30 1
    55   29   53 1
    56   31   32 2
    57   31   33 am
    58   33   54 1
    59   34   55 1
    60   34   56 1
    61   34   57 1
@<TRIPOS>MOLECULE
CHEMBL388311
   58    62     0     0     0
SMALL
USER_CHARGES

@<TRIPOS>ATOM
      1 C1         -0.1467    1.1241   -0.0579 C.ar      1 <0>        -0.1011
      2 C2          0.6601    0.5114   -0.9984 C.ar      1 <0>        -0.1076
      3 C3          1.3983   -0.6053   -0.6535 C.ar      1 <0>        -0.1400
      4 C4          1.3301   -1.1089    0.6320 C.ar      1 <0>        -0.1307
      5 C5          0.5240   -0.4957    1.5727 C.ar      1 <0>        -0.1028
      6 C6         -0.2153    0.6202    1.2275 C.ar      1 <0>        -0.1053
      7 C7          2.1341   -2.3269    1.0077 C.3       1 <0>        -0.0971
      8 C8          3.5068   -1.8922    1.5251 C.3       1 <0>         0.0438
      9 H1          3.3789   -1.1858    2.3453 H         1 <0>         0.1553
     10 C9          4.2759   -3.1177    2.0227 C.3       1 <0>         0.0273
     11 O1          5.5087   -2.6995    2.6120 O.3       1 <0>        -0.3227
     12 C10         6.3173   -3.6730    3.1076 C.ar      1 <0>         0.0695
     13 C11         7.5300   -3.3456    3.7010 C.ar      1 <0>        -0.0983
     14 C12         8.3255   -4.3815    4.1951 C.ar      1 <0>        -0.0325
     15 C13         7.8754   -5.6950    4.0747 C.ar      1 <0>         0.0847
     16 N1          6.7181   -5.9599    3.5044 N.ar      1 <0>        -0.4372
     17 C14         5.9392   -5.0063    3.0322 C.ar      1 <0>         0.0188
     18 C15         9.6303   -4.0883    4.8381 C.ar      1 <0>        -0.0873
     19 C16        10.0701   -2.7689    4.9587 C.ar      1 <0>        -0.0586
     20 C17        11.2795   -2.4865    5.5544 C.ar      1 <0>        -0.1382
     21 C18        12.0784   -3.5161    6.0437 C.ar      1 <0>         0.1734
     22 C19        11.6380   -4.8422    5.9232 C.ar      1 <0>        -0.1072
     23 C20        10.4158   -5.1273    5.3273 C.ar      1 <0>        -0.0362
     24 C21        12.6913   -5.6877    6.5286 C.2       1 <0>        -0.1460
     25 C22        12.7019   -7.0647    6.6423 C.2       1 <0>         0.0650
     26 C23        13.7970   -7.7138    7.2490 C.2       1 <0>        -0.0127
     27 C24        14.8940   -8.2554    6.5969 C.2       1 <0>        -0.1491
     28 C25        15.7287   -8.7938    7.5779 C.2       1 <0>        -0.1987
     29 C26        15.1475   -8.5806    8.7848 C.2       1 <0>         0.0069
     30 N2         13.9763   -7.9210    8.5999 N.pl3     1 <0>        -0.5320
     31 H2         13.3661   -7.6438    9.3011 H         1 <0>         0.4143
     32 C27        13.7230   -4.7461    6.9817 C.2       1 <0>         0.5528
     33 O2         14.7661   -5.0405    7.5379 O.2       1 <0>        -0.4693
     34 N3         13.3155   -3.5030    6.6752 N.am      1 <0>        -0.6568
     35 N4          4.2587   -1.2501    0.4387 N.4       1 <0>        -0.6365
     36 H3         -0.7200    1.9992   -0.3262 H         1 <0>         0.1330
     37 H4          0.7134    0.9049   -2.0028 H         1 <0>         0.1326
     38 H5          2.0281   -1.0844   -1.3885 H         1 <0>         0.1229
     39 H6          0.4704   -0.8894    2.5770 H         1 <0>         0.1308
     40 H7         -0.8454    1.0991    1.9623 H         1 <0>         0.1335
     41 H8          1.6111   -2.8814    1.7869 H         1 <0>         0.1255
     42 H9          2.2608   -2.9631    0.1317 H         1 <0>         0.1039
     43 H10         3.6780   -3.6445    2.7664 H         1 <0>         0.1144
     44 H11         4.4812   -3.7829    1.1840 H         1 <0>         0.0930
     45 H12         7.8493   -2.3167    3.7779 H         1 <0>         0.1486
     46 H13         8.4822   -6.5044    4.4528 H         1 <0>         0.1670
     47 H14         4.9954   -5.2669    2.5764 H         1 <0>         0.1572
     48 H15         9.4574   -1.9633    4.5818 H         1 <0>         0.1341
     49 H16        11.6095   -1.4619    5.6418 H         1 <0>         0.1364
     50 H17        10.0791   -6.1498    5.2409 H         1 <0>         0.1367
     51 H18        11.8714   -7.6439    6.2664 H         1 <0>         0.1474
     52 H19        15.0696   -8.2602    5.5313 H         1 <0>         0.1370
     53 H20        16.6711   -9.2927    7.4061 H         1 <0>         0.1390
     54 H21        15.5532   -8.8835    9.7387 H         1 <0>         0.1666
     55 H22        13.8209   -2.6984    6.8704 H         1 <0>         0.4215
     56 H23         5.1640   -0.9634    0.7799 H         1 <0>         0.4422
     57 H24         4.3771   -1.9040   -0.3206 H         1 <0>         0.4325
     58 H25         3.7516   -0.4419    0.1106 H         1 <0>         0.4366
@<TRIPOS>BOND
     1    1    6 ar
     2    1    2 ar
     3    1   36 1
     4    2    3 ar
     5    2   37 1
     6    3    4 ar
     7    3   38 1
     8    4    5 ar
     9    4    7 1
    10    5    6 ar
    11    5   39 1
    12    6   40 1
    13    7    8 1
    14    7   41 1
    15    7   42 1
    16    8    9 1
    17    8   10 1
    18    8   35 1
    19   10   11 1
    20   10   43 1
    21   10   44 1
    22   11   12 1
    23   12   17 ar
    24   12   13 ar
    25   13   14 ar
    26   13   45 1
    27   14   15 ar
    28   14   18 1
    29   15   16 ar
    30   15   46 1
    31   16   17 ar
    32   17   47 1
    33   18   23 ar
    34   18   19 ar
    35   19   20 ar
    36   19   48 1
    37   20   21 ar
    38   20   49 1
    39   21   34 1
    40   21   22 ar
    41   22   23 ar
    42   22   24 1
    43   23   50 1
    44   24   25 2
    45   24   32 1
    46   25   26 1
    47   25   51 1
    48   26   30 1
    49   26   27 2
    50   27   28 1
    51   27   52 1
    52   28   29 2
    53   28   53 1
    54   29   30 1
    55   29   54 1
    56   30   31 1
    57   32   33 2
    58   32   34 am
    59   34   55 1
    60   35   56 1
    61   35   57 1
    62   35   58 1
@<TRIPOS>MOLECULE
CHEMBL255360
   69    75     0     0     0
SMALL
USER_CHARGES

@<TRIPOS>ATOM
      1 C1         -0.0167    1.3791    0.0096 C.ar      1 <0>        -0.1099
      2 C2          1.1686    2.0924    0.0021 C.ar      1 <0>        -0.1107
      3 C3          2.3774    1.4269   -0.0135 C.ar      1 <0>        -0.1054
      4 C4          2.4026    0.0330   -0.0212 C.ar      1 <0>        -0.0464
      5 C5          1.2049   -0.6804   -0.0131 C.ar      1 <0>        -0.1007
      6 C6          0.0021   -0.0041    0.0020 C.ar      1 <0>        -0.1212
      7 C7          3.6978   -0.6876   -0.0384 C.ar      1 <0>        -0.1179
      8 C8          4.6777   -0.3464   -0.9613 C.ar      1 <0>         0.0052
      9 C9          5.8822   -1.0592   -0.9338 C.ar      1 <0>        -0.2484
     10 C10         6.9382   -0.7816   -1.8350 C.ar      1 <0>         0.4948
     11 N1          8.0479   -1.5039   -1.7418 N.ar      1 <0>        -0.5948
     12 C11         8.1732   -2.4588   -0.8351 C.ar      1 <0>         0.3861
     13 N2          7.2281   -2.7591    0.0241 N.ar      1 <0>        -0.5457
     14 C12         6.0635   -2.0923    0.0205 C.ar      1 <0>         0.3816
     15 N3          5.0935   -2.3829    0.8857 N.ar      1 <0>        -0.4570
     16 C13         3.9493   -1.7234    0.8867 C.ar      1 <0>         0.2412
     17 C14         2.9060   -2.0823    1.8752 C.ar      1 <0>        -0.0161
     18 C15         2.0789   -1.0949    2.4100 C.ar      1 <0>        -0.0774
     19 C16         1.1089   -1.4354    3.3304 C.ar      1 <0>        -0.1019
     20 C17         0.9560   -2.7531    3.7229 C.ar      1 <0>        -0.1489
     21 C18         1.7734   -3.7371    3.1960 C.ar      1 <0>        -0.0965
     22 C19         2.7431   -3.4098    2.2706 C.ar      1 <0>        -0.0692
     23 C20        -0.1050   -3.1181    4.7289 C.3       1 <0>         0.0432
     24 N4         -1.3556   -3.4379    4.0276 N.4       1 <0>        -0.3847
     25 C21        -1.8526   -2.2374    3.3447 C.3       1 <0>        -0.0093
     26 C22        -3.1110   -2.5843    2.5463 C.3       1 <0>        -0.1563
     27 C23        -4.1856   -3.1120    3.5014 C.3       1 <0>         0.1364
     28 C24        -3.6299   -4.3192    4.2624 C.3       1 <0>        -0.1587
     29 C25        -2.3522   -3.9080    4.9972 C.3       1 <0>        -0.0010
     30 N5         -5.3662   -3.5173    2.7346 N.pl3     1 <0>        -0.4762
     31 C26        -5.4092   -4.4761    1.7665 C.2       1 <0>         0.2363
     32 N6         -6.6177   -4.5776    1.2945 N.2       1 <0>        -0.4439
     33 C27        -7.4249   -3.6929    1.9278 C.ar      1 <0>        -0.1159
     34 C28        -6.6328   -3.0058    2.8633 C.ar      1 <0>         0.3107
     35 N7         -7.1958   -2.0751    3.6267 N.ar      1 <0>        -0.5694
     36 C29        -8.4782   -1.7998    3.5132 C.ar      1 <0>         0.3790
     37 N8         -9.2628   -2.4207    2.6517 N.ar      1 <0>        -0.5881
     38 C30        -8.7871   -3.3599    1.8403 C.ar      1 <0>         0.5153
     39 N9         -9.6176   -4.0059    0.9413 N.pl3     1 <0>        -0.8104
     40 N10         6.8171    0.2107   -2.7832 N.pl3     1 <0>        -0.8101
     41 H1         -0.9603    1.9042    0.0260 H         1 <0>         0.1262
     42 H2          1.1478    3.1722    0.0082 H         1 <0>         0.1301
     43 H3          3.3021    1.9848   -0.0200 H         1 <0>         0.1270
     44 H4          1.2183   -1.7603   -0.0194 H         1 <0>         0.1206
     45 H5         -0.9264   -0.5557    0.0079 H         1 <0>         0.1217
     46 H6          4.5154    0.4444   -1.6787 H         1 <0>         0.1455
     47 H7          9.0966   -3.0178   -0.8007 H         1 <0>         0.2089
     48 H8          2.1976   -0.0658    2.1046 H         1 <0>         0.1440
     49 H9          0.4681   -0.6716    3.7455 H         1 <0>         0.1356
     50 H10         1.6494   -4.7640    3.5066 H         1 <0>         0.1370
     51 H11         3.3775   -4.1795    1.8563 H         1 <0>         0.1446
     52 H12         0.2215   -3.9853    5.3030 H         1 <0>         0.1414
     53 H13        -0.2712   -2.2778    5.4029 H         1 <0>         0.1389
     54 H14        -2.0910   -1.4722    4.0835 H         1 <0>         0.1356
     55 H15        -1.0856   -1.8612    2.6678 H         1 <0>         0.1416
     56 H16        -3.4795   -1.6913    2.0415 H         1 <0>         0.1206
     57 H17        -2.8737   -3.3493    1.8070 H         1 <0>         0.0975
     58 H18        -4.4601   -2.3298    4.2091 H         1 <0>         0.1249
     59 H19        -4.3693   -4.6662    4.9842 H         1 <0>         0.1219
     60 H20        -3.4033   -5.1202    3.5587 H         1 <0>         0.0982
     61 H21        -1.9541   -4.7652    5.5402 H         1 <0>         0.1415
     62 H22        -2.5799   -3.1072    5.7007 H         1 <0>         0.1362
     63 H23        -4.5647   -5.0645    1.4393 H         1 <0>         0.2186
     64 H24        -8.9044   -1.0378    4.1489 H         1 <0>         0.2091
     65 H25        -9.2609   -4.6975    0.3622 H         1 <0>         0.4213
     66 H26       -10.5564   -3.7671    0.8903 H         1 <0>         0.4155
     67 H27         6.0000    0.7303   -2.8398 H         1 <0>         0.4141
     68 H28         7.5490    0.3897   -3.3941 H         1 <0>         0.4207
     69 H29        -1.1824   -4.1622    3.3468 H         1 <0>         0.4236
@<TRIPOS>BOND
     1    1    6 ar
     2    1    2 ar
     3    1   41 1
     4    2    3 ar
     5    2   42 1
     6    3    4 ar
     7    3   43 1
     8    4    5 ar
     9    4    7 1
    10    5    6 ar
    11    5   44 1
    12    6   45 1
    13    7   16 ar
    14    7    8 ar
    15    8    9 ar
    16    8   46 1
    17    9   14 ar
    18    9   10 ar
    19   10   11 ar
    20   10   40 1
    21   11   12 ar
    22   12   13 ar
    23   12   47 1
    24   13   14 ar
    25   14   15 ar
    26   15   16 ar
    27   16   17 1
    28   17   22 ar
    29   17   18 ar
    30   18   19 ar
    31   18   48 1
    32   19   20 ar
    33   19   49 1
    34   20   21 ar
    35   20   23 1
    36   21   22 ar
    37   21   50 1
    38   22   51 1
    39   23   24 1
    40   23   52 1
    41   23   53 1
    42   24   29 1
    43   24   25 1
    44   24   69 1
    45   25   26 1
    46   25   54 1
    47   25   55 1
    48   26   27 1
    49   26   56 1
    50   26   57 1
    51   27   28 1
    52   27   30 1
    53   27   58 1
    54   28   29 1
    55   28   59 1
    56   28   60 1
    57   29   61 1
    58   29   62 1
    59   30   34 1
    60   30   31 1
    61   31   32 2
    62   31   63 1
    63   32   33 1
    64   33   38 ar
    65   33   34 ar
    66   34   35 ar
    67   35   36 ar
    68   36   37 ar
    69   36   64 1
    70   37   38 ar
    71   38   39 1
    72   39   65 1
    73   39   66 1
    74   40   67 1
    75   40   68 1
@<TRIPOS>MOLECULE
CHEMBL379868
   55    59     0     0     0
SMALL
USER_CHARGES

@<TRIPOS>ATOM
      1 C1         -0.0184    1.5028    0.0103 C.3       1 <0>        -0.0807
      2 C2          0.0021   -0.0041    0.0020 C.2       1 <0>         0.1088
      3 C3          0.0083   -0.8581   -1.1820 C.ar      1 <0>        -0.1763
      4 C4         -0.0019   -0.6082   -2.5573 C.ar      1 <0>        -0.0082
      5 C5          0.0079   -1.6738   -3.4431 C.ar      1 <0>        -0.1063
      6 C6          0.0279   -2.9891   -2.9631 C.ar      1 <0>        -0.0534
      7 C7          0.0380   -3.2410   -1.6234 C.ar      1 <0>        -0.1371
      8 C8          0.0285   -2.1860   -0.7124 C.ar      1 <0>         0.1441
      9 N1          0.0337   -2.1193    0.6566 N.pl3     1 <0>        -0.5045
     10 H1          0.0468   -2.8812    1.2569 H         1 <0>         0.4444
     11 N2          0.0230   -0.7772    1.0497 N.2       1 <0>        -0.2434
     12 C9         -0.0034   -1.4202   -4.9053 C.ar      1 <0>        -0.0269
     13 C10         0.0004   -2.4846   -5.8096 C.ar      1 <0>        -0.1014
     14 C11        -0.0110   -2.1940   -7.1677 C.ar      1 <0>         0.0696
     15 C12        -0.0257   -0.8671   -7.5756 C.ar      1 <0>         0.0162
     16 N3         -0.0289    0.1132   -6.6940 N.ar      1 <0>        -0.4367
     17 C13        -0.0238   -0.1167   -5.3969 C.ar      1 <0>         0.0814
     18 O1         -0.0074   -3.1961   -8.0859 O.3       1 <0>        -0.3231
     19 C14        -0.0198   -2.8144   -9.4629 C.3       1 <0>         0.0275
     20 C15        -0.0136   -4.0682  -10.3397 C.3       1 <0>         0.0424
     21 H2          0.8359   -4.6958  -10.0703 H         1 <0>         0.1548
     22 C16         0.0989   -3.6615  -11.8104 C.3       1 <0>        -0.0908
     23 C17         0.2286   -4.8962  -12.6646 C.ar      1 <0>        -0.1963
     24 C18         1.4642   -5.4081  -12.9431 C.ar      1 <0>        -0.0246
     25 C19         1.5393   -6.5628  -13.7442 C.ar      1 <0>        -0.0997
     26 C20         2.7738   -7.1464  -14.0722 C.ar      1 <0>        -0.0998
     27 C21         2.8043   -8.2636  -14.8496 C.ar      1 <0>        -0.0984
     28 C22         1.6262   -8.8363  -15.3252 C.ar      1 <0>        -0.0839
     29 C23         0.4130   -8.2970  -15.0272 C.ar      1 <0>        -0.0946
     30 C24         0.3400   -7.1438  -14.2262 C.ar      1 <0>         0.1302
     31 N4         -0.8375   -6.5928  -13.9160 N.ar      1 <0>        -0.4493
     32 C25        -0.9114   -5.5199  -13.1660 C.ar      1 <0>         0.1040
     33 N5         -1.2605   -4.8167  -10.1327 N.4       1 <0>        -0.6371
     34 H3          1.0042    1.8801    0.0026 H         1 <0>         0.0878
     35 H4         -0.5455    1.8639   -0.8728 H         1 <0>         0.0843
     36 H5         -0.5286    1.8543    0.9071 H         1 <0>         0.0843
     37 H6         -0.0177    0.4067   -2.9264 H         1 <0>         0.1366
     38 H7          0.0350   -3.8127   -3.6617 H         1 <0>         0.1316
     39 H8          0.0531   -4.2604   -1.2670 H         1 <0>         0.1332
     40 H9          0.0123   -3.5071   -5.4619 H         1 <0>         0.1475
     41 H10        -0.0343   -0.6345   -8.6302 H         1 <0>         0.1567
     42 H11        -0.0314    0.7142   -4.7071 H         1 <0>         0.1669
     43 H12        -0.9167   -2.2306   -9.6700 H         1 <0>         0.0941
     44 H13         0.8631   -2.2138   -9.6814 H         1 <0>         0.1148
     45 H14        -0.7936   -3.1088  -12.1038 H         1 <0>         0.1089
     46 H15         0.9777   -3.0313  -11.9469 H         1 <0>         0.1279
     47 H16         2.3584   -4.9396  -12.5596 H         1 <0>         0.1469
     48 H17         3.6935   -6.7113  -13.7102 H         1 <0>         0.1375
     49 H18         3.7542   -8.7117  -15.1013 H         1 <0>         0.1380
     50 H19         1.6770   -9.7225  -15.9405 H         1 <0>         0.1405
     51 H20        -0.4903   -8.7531  -15.4045 H         1 <0>         0.1433
     52 H21        -1.8818   -5.1064  -12.9342 H         1 <0>         0.1555
     53 H22        -1.2564   -5.6436  -10.7110 H         1 <0>         0.4356
     54 H23        -1.3347   -5.0850   -9.1628 H         1 <0>         0.4433
     55 H24        -2.0469   -4.2358  -10.3821 H         1 <0>         0.4339
@<TRIPOS>BOND
     1    1    2 1
     2    1   34 1
     3    1   35 1
     4    1   36 1
     5    2   11 2
     6    2    3 1
     7    3    8 ar
     8    3    4 ar
     9    4    5 ar
    10    4   37 1
    11    5    6 ar
    12    5   12 1
    13    6    7 ar
    14    6   38 1
    15    7    8 ar
    16    7   39 1
    17    8    9 1
    18    9   10 1
    19    9   11 1
    20   12   17 ar
    21   12   13 ar
    22   13   14 ar
    23   13   40 1
    24   14   15 ar
    25   14   18 1
    26   15   16 ar
    27   15   41 1
    28   16   17 ar
    29   17   42 1
    30   18   19 1
    31   19   20 1
    32   19   43 1
    33   19   44 1
    34   20   21 1
    35   20   22 1
    36   20   33 1
    37   22   23 1
    38   22   45 1
    39   22   46 1
    40   23   32 ar
    41   23   24 ar
    42   24   25 ar
    43   24   47 1
    44   25   30 ar
    45   25   26 ar
    46   26   27 ar
    47   26   48 1
    48   27   28 ar
    49   27   49 1
    50   28   29 ar
    51   28   50 1
    52   29   30 ar
    53   29   51 1
    54   30   31 ar
    55   31   32 ar
    56   32   52 1
    57   33   53 1
    58   33   54 1
    59   33   55 1
@<TRIPOS>MOLECULE
CHEMBL226848
   49    52     0     0     0
SMALL
USER_CHARGES

@<TRIPOS>ATOM
      1 C1         -0.0167    1.3781    0.0096 C.ar      1 <0>        -0.1011
      2 C2          1.1709    2.0855    0.0021 C.ar      1 <0>        -0.1077
      3 C3          2.3773    1.4107   -0.0130 C.ar      1 <0>        -0.1400
      4 C4          2.3960    0.0285   -0.0201 C.ar      1 <0>        -0.1308
      5 C5          1.2084   -0.6789   -0.0117 C.ar      1 <0>        -0.1027
      6 C6          0.0021   -0.0041    0.0020 C.ar      1 <0>        -0.1053
      7 C7          3.7112   -0.7071   -0.0376 C.3       1 <0>        -0.0971
      8 C8          4.1714   -0.9633    1.3989 C.3       1 <0>         0.0438
      9 H1          3.3868   -1.4885    1.9436 H         1 <0>         0.1554
     10 C9          5.4407   -1.8174    1.3832 C.3       1 <0>         0.0273
     11 O1          5.8049   -2.1541    2.7233 O.3       1 <0>        -0.3228
     12 C10         6.9187   -2.9157    2.8873 C.ar      1 <0>         0.0690
     13 C11         7.3341   -3.2893    4.1592 C.ar      1 <0>        -0.0980
     14 C12         8.4845   -4.0726    4.2756 C.ar      1 <0>        -0.0336
     15 C13         9.1668   -4.4466    3.1191 C.ar      1 <0>         0.0857
     16 N1          8.7371   -4.0691    1.9328 N.ar      1 <0>        -0.4377
     17 C14         7.6518   -3.3345    1.7857 C.ar      1 <0>         0.0192
     18 C15         8.9732   -4.4996    5.6098 C.ar      1 <0>        -0.0843
     19 C16         8.2830   -4.1263    6.7621 C.ar      1 <0>        -0.0640
     20 C17         8.7361   -4.5217    8.0006 C.ar      1 <0>        -0.1370
     21 C18         9.8892   -5.2989    8.1129 C.ar      1 <0>         0.1640
     22 C19        10.5720   -5.6677    6.9593 C.ar      1 <0>        -0.1386
     23 C20        10.1230   -5.2819    5.7189 C.ar      1 <0>        -0.0432
     24 C21        11.7558   -6.4918    7.4113 C.3       1 <0>        -0.1175
     25 C22        11.6291   -6.5209    8.9196 C.2       1 <0>         0.5278
     26 O2         12.3771   -7.0785    9.6946 O.2       1 <0>        -0.4888
     27 N2         10.5326   -5.8131    9.2385 N.am      1 <0>        -0.6613
     28 N3          4.4519    0.3186    2.0592 N.4       1 <0>        -0.6365
     29 H2         -0.9591    1.9053    0.0259 H         1 <0>         0.1330
     30 H3          1.1563    3.1654    0.0076 H         1 <0>         0.1326
     31 H4          3.3051    1.9634   -0.0196 H         1 <0>         0.1229
     32 H5          1.2231   -1.7588   -0.0176 H         1 <0>         0.1308
     33 H6         -0.9258   -0.5567    0.0082 H         1 <0>         0.1335
     34 H7          3.5884   -1.6586   -0.5549 H         1 <0>         0.1255
     35 H8          4.4573   -0.1052   -0.5563 H         1 <0>         0.1038
     36 H9          5.2575   -2.7301    0.8162 H         1 <0>         0.1145
     37 H10         6.2504   -1.2562    0.9167 H         1 <0>         0.0929
     38 H11         6.7821   -2.9819    5.0350 H         1 <0>         0.1484
     39 H12        10.0576   -5.0522    3.1967 H         1 <0>         0.1678
     40 H13         7.3314   -3.0509    0.7941 H         1 <0>         0.1572
     41 H14         7.3897   -3.5244    6.6830 H         1 <0>         0.1333
     42 H15         8.1966   -4.2286    8.8891 H         1 <0>         0.1345
     43 H16        10.6616   -5.5795    4.8313 H         1 <0>         0.1376
     44 H17        11.6967   -7.5009    7.0036 H         1 <0>         0.1296
     45 H18        12.6895   -6.0134    7.1156 H         1 <0>         0.1295
     46 H19        10.2236   -5.6757   10.1476 H         1 <0>         0.4173
     47 H20         3.6148    0.8819    2.0696 H         1 <0>         0.4367
     48 H21         4.7554    0.1497    3.0065 H         1 <0>         0.4421
     49 H22         5.1782    0.8048    1.5550 H         1 <0>         0.4324
@<TRIPOS>BOND
     1    1    6 ar
     2    1    2 ar
     3    1   29 1
     4    2    3 ar
     5    2   30 1
     6    3    4 ar
     7    3   31 1
     8    4    5 ar
     9    4    7 1
    10    5    6 ar
    11    5   32 1
    12    6   33 1
    13    7    8 1
    14    7   34 1
    15    7   35 1
    16    8    9 1
    17    8   10 1
    18    8   28 1
    19   10   11 1
    20   10   36 1
    21   10   37 1
    22   11   12 1
    23   12   17 ar
    24   12   13 ar
    25   13   14 ar
    26   13   38 1
    27   14   15 ar
    28   14   18 1
    29   15   16 ar
    30   15   39 1
    31   16   17 ar
    32   17   40 1
    33   18   23 ar
    34   18   19 ar
    35   19   20 ar
    36   19   41 1
    37   20   21 ar
    38   20   42 1
    39   21   27 1
    40   21   22 ar
    41   22   23 ar
    42   22   24 1
    43   23   43 1
    44   24   25 1
    45   24   44 1
    46   24   45 1
    47   25   26 2
    48   25   27 am
    49   27   46 1
    50   28   47 1
    51   28   48 1
    52   28   49 1
@<TRIPOS>MOLECULE
CHEMBL209231
   65    71     0     0     0
SMALL
USER_CHARGES

@<TRIPOS>ATOM
      1 C1         -0.0165    1.3620    0.0095 C.ar      1 <0>        -0.1445
      2 C2          1.1697    2.0834    0.0021 C.ar      1 <0>        -0.0951
      3 C3          2.3856    1.4362   -0.0134 C.ar      1 <0>        -0.1321
      4 C4          2.4281    0.0456   -0.0212 C.ar      1 <0>         0.1040
      5 C5          1.2234   -0.6807   -0.0132 C.ar      1 <0>        -0.0804
      6 C6          0.0021   -0.0041    0.0020 C.ar      1 <0>        -0.0562
      7 C7          1.6036   -2.0953   -0.0245 C.2       1 <0>        -0.1637
      8 C8          2.9451   -2.1410   -0.0380 C.2       1 <0>         0.0445
      9 N1          3.4551   -0.8713   -0.0363 N.pl3     1 <0>        -0.5942
     10 H1          4.3995   -0.6501   -0.0442 H         1 <0>         0.4137
     11 C9          0.6664   -3.2754   -0.0210 C.3       1 <0>        -0.0600
     12 C10         0.2361   -3.5891   -1.4554 C.3       1 <0>         0.1671
     13 H2          1.1200   -3.7379   -2.0756 H         1 <0>         0.0998
     14 C11        -0.6144   -4.8610   -1.4661 C.3       1 <0>         0.0453
     15 O1         -1.7110   -4.7083   -0.5627 O.3       1 <0>        -0.3015
     16 C12        -2.5699   -5.7559   -0.4522 C.ar      1 <0>         0.0881
     17 C13        -3.6637   -5.6816    0.4011 C.ar      1 <0>        -0.1007
     18 C14        -4.5175   -6.7839    0.4793 C.ar      1 <0>        -0.0488
     19 C15        -4.2413   -7.9084   -0.2964 C.ar      1 <0>         0.0719
     20 N2         -3.1923   -7.9355   -1.0924 N.ar      1 <0>        -0.4430
     21 C16        -2.3684   -6.9109   -1.1949 C.ar      1 <0>         0.0167
     22 C17        -5.7002   -6.7585    1.3749 C.ar      1 <0>        -0.0366
     23 C18        -5.9695   -5.6250    2.1427 C.ar      1 <0>        -0.0913
     24 C19        -7.0675   -5.5973    2.9756 C.ar      1 <0>        -0.1001
     25 C20        -7.9087   -6.6987    3.0521 C.ar      1 <0>         0.0979
     26 C21        -7.6438   -7.8364    2.2853 C.ar      1 <0>         0.0931
     27 C22        -6.5443   -7.8636    1.4444 C.ar      1 <0>        -0.0891
     28 N3         -8.6480   -8.7584    2.5731 N.am      1 <0>        -0.6414
     29 C23        -9.4843   -8.2071    3.4727 C.2       1 <0>         0.6847
     30 N4         -9.0648   -6.9656    3.7809 N.am      1 <0>        -0.6410
     31 H3         -9.4946   -6.3601    4.4050 H         1 <0>         0.4377
     32 O2        -10.4700   -8.7490    3.9369 O.2       1 <0>        -0.5502
     33 N5         -0.5497   -2.4718   -1.9849 N.pl3     1 <0>        -0.7349
     34 C24         0.0968   -1.3733   -2.5616 C.ar      1 <0>         0.2428
     35 C25         1.4850   -1.3459   -2.6367 C.ar      1 <0>        -0.1619
     36 C26         2.1288   -0.2646   -3.2042 C.ar      1 <0>        -0.0585
     37 C27         1.3896    0.7979   -3.7017 C.ar      1 <0>         0.0367
     38 C28        -0.0045    0.7734   -3.6283 C.ar      1 <0>         0.1400
     39 C29        -0.6483   -0.3162   -3.0625 C.ar      1 <0>        -0.1864
     40 N6         -0.4589    1.9595   -4.1999 N.am      1 <0>        -0.6433
     41 C30         0.6087    2.6737   -4.6029 C.2       1 <0>         0.6832
     42 N7          1.7391    2.0006   -4.3168 N.am      1 <0>        -0.6414
     43 H4          2.6420    2.3007   -4.5056 H         1 <0>         0.4305
     44 O3          0.5595    3.7627   -5.1439 O.2       1 <0>        -0.5656
     45 H5         -0.9613    1.8849    0.0259 H         1 <0>         0.1133
     46 H6          1.1388    3.1630    0.0081 H         1 <0>         0.1162
     47 H7          3.3028    2.0064   -0.0198 H         1 <0>         0.1120
     48 H8         -0.9246   -0.5587    0.0082 H         1 <0>         0.1138
     49 H9          3.5346   -3.0459   -0.0490 H         1 <0>         0.1649
     50 H10         1.1742   -4.1414    0.4036 H         1 <0>         0.0762
     51 H11        -0.2127   -3.0396    0.5787 H         1 <0>         0.0832
     52 H12        -0.9944   -5.0354   -2.4727 H         1 <0>         0.0756
     53 H13        -0.0037   -5.7090   -1.1563 H         1 <0>         0.0815
     54 H14        -3.8486   -4.7946    0.9889 H         1 <0>         0.1472
     55 H15        -4.8943   -8.7670   -0.2440 H         1 <0>         0.1598
     56 H16        -1.5224   -6.9731   -1.8634 H         1 <0>         0.1584
     57 H17        -5.3157   -4.7674    2.0846 H         1 <0>         0.1391
     58 H18        -7.2731   -4.7187    3.5689 H         1 <0>         0.1380
     59 H19        -6.3400   -8.7401    0.8475 H         1 <0>         0.1384
     60 H20        -1.5182   -2.4936   -1.9356 H         1 <0>         0.4028
     61 H21         2.0615   -2.1731   -2.2495 H         1 <0>         0.1325
     62 H22         3.2071   -0.2461   -3.2604 H         1 <0>         0.1180
     63 H23        -1.7267   -0.3398   -3.0080 H         1 <0>         0.1235
     64 H24        -1.3871    2.2257   -4.2919 H         1 <0>         0.4321
     65 H25        -8.7307   -9.6459    2.1904 H         1 <0>         0.4378
@<TRIPOS>BOND
     1    1    6 ar
     2    1    2 ar
     3    1   45 1
     4    2    3 ar
     5    2   46 1
     6    3    4 ar
     7    3   47 1
     8    4    9 1
     9    4    5 ar
    10    5    6 ar
    11    5    7 1
    12    6   48 1
    13    7    8 2
    14    7   11 1
    15    8    9 1
    16    8   49 1
    17    9   10 1
    18   11   12 1
    19   11   50 1
    20   11   51 1
    21   12   13 1
    22   12   14 1
    23   12   33 1
    24   14   15 1
    25   14   52 1
    26   14   53 1
    27   15   16 1
    28   16   21 ar
    29   16   17 ar
    30   17   18 ar
    31   17   54 1
    32   18   19 ar
    33   18   22 1
    34   19   20 ar
    35   19   55 1
    36   20   21 ar
    37   21   56 1
    38   22   27 ar
    39   22   23 ar
    40   23   24 ar
    41   23   57 1
    42   24   25 ar
    43   24   58 1
    44   25   30 1
    45   25   26 ar
    46   26   27 ar
    47   26   28 1
    48   27   59 1
    49   28   29 am
    50   28   65 1
    51   29   30 am
    52   29   32 2
    53   30   31 1
    54   33   34 1
    55   33   60 1
    56   34   39 ar
    57   34   35 ar
    58   35   36 ar
    59   35   61 1
    60   36   37 ar
    61   36   62 1
    62   37   42 1
    63   37   38 ar
    64   38   39 ar
    65   38   40 1
    66   39   63 1
    67   40   41 am
    68   40   64 1
    69   41   42 am
    70   41   44 2
    71   42   43 1
@<TRIPOS>MOLECULE
CHEMBL209231
   65    71     0     0     0
SMALL
USER_CHARGES

@<TRIPOS>ATOM
      1 C1         -0.0165    1.3620    0.0095 C.ar      1 <0>        -0.1416
      2 C2          1.1697    2.0834    0.0021 C.ar      1 <0>        -0.0953
      3 C3          2.3856    1.4362   -0.0134 C.ar      1 <0>        -0.1353
      4 C4          2.4281    0.0456   -0.0212 C.ar      1 <0>         0.1031
      5 C5          1.2234   -0.6807   -0.0132 C.ar      1 <0>        -0.0805
      6 C6          0.0021   -0.0041    0.0020 C.ar      1 <0>        -0.0529
      7 C7          1.6036   -2.0953   -0.0245 C.2       1 <0>        -0.1620
      8 C8          2.9451   -2.1410   -0.0380 C.2       1 <0>         0.0423
      9 N1          3.4551   -0.8713   -0.0363 N.pl3     1 <0>        -0.5950
     10 H1          4.3995   -0.6501   -0.0442 H         1 <0>         0.4129
     11 C9          0.6664   -3.2754   -0.0210 C.3       1 <0>        -0.0606
     12 C10         0.2361   -3.5891   -1.4554 C.3       1 <0>         0.1676
     13 H2          1.1200   -3.7379   -2.0756 H         1 <0>         0.0977
     14 C11        -0.6144   -4.8610   -1.4661 C.3       1 <0>         0.0458
     15 O1         -1.7110   -4.7083   -0.5627 O.3       1 <0>        -0.3009
     16 C12        -2.5699   -5.7559   -0.4522 C.ar      1 <0>         0.0887
     17 C13        -3.6637   -5.6816    0.4011 C.ar      1 <0>        -0.1006
     18 C14        -4.5175   -6.7839    0.4793 C.ar      1 <0>        -0.0491
     19 C15        -4.2413   -7.9084   -0.2964 C.ar      1 <0>         0.0715
     20 N2         -3.1923   -7.9355   -1.0924 N.ar      1 <0>        -0.4432
     21 C16        -2.3684   -6.9109   -1.1949 C.ar      1 <0>         0.0165
     22 C17        -5.7002   -6.7585    1.3749 C.ar      1 <0>        -0.0361
     23 C18        -5.9695   -5.6250    2.1427 C.ar      1 <0>        -0.0912
     24 C19        -7.0675   -5.5973    2.9756 C.ar      1 <0>        -0.1000
     25 C20        -7.9087   -6.6987    3.0521 C.ar      1 <0>         0.0975
     26 C21        -7.6438   -7.8364    2.2853 C.ar      1 <0>         0.0929
     27 C22        -6.5443   -7.8636    1.4444 C.ar      1 <0>        -0.0892
     28 N3         -8.6480   -8.7584    2.5731 N.am      1 <0>        -0.6414
     29 C23        -9.4843   -8.2071    3.4727 C.2       1 <0>         0.6848
     30 N4         -9.0648   -6.9656    3.7809 N.am      1 <0>        -0.6410
     31 H3         -9.4946   -6.3601    4.4050 H         1 <0>         0.4376
     32 O2        -10.4700   -8.7490    3.9369 O.2       1 <0>        -0.5507
     33 N5         -0.5497   -2.4718   -1.9849 N.pl3     1 <0>        -0.7379
     34 C24         0.0970   -1.3731   -2.5617 C.ar      1 <0>         0.2262
     35 C25         1.4879   -1.3480   -2.6358 C.ar      1 <0>        -0.1391
     36 C26         2.1364   -0.2711   -3.2019 C.ar      1 <0>        -0.0691
     37 C27         1.4025    0.7944   -3.7015 C.ar      1 <0>         0.0159
     38 C28         0.0001    0.7775   -3.6315 C.ar      1 <0>         0.1098
     39 C29        -0.6481   -0.3204   -3.0604 C.ar      1 <0>        -0.1546
     40 N6         -0.4415    1.9355   -4.1894 N.2       1 <0>        -0.4931
     41 C30         0.5792    2.6483   -4.5895 C.2       1 <0>         0.4499
     42 N7          1.7419    1.9919   -4.3133 N.pl3     1 <0>        -0.6023
     43 H4          2.6393    2.3043   -4.5082 H         1 <0>         0.4175
     44 O3          0.4941    3.8582   -5.1888 O.3       1 <0>        -0.4464
     45 H5         -0.9613    1.8849    0.0259 H         1 <0>         0.1147
     46 H6          1.1388    3.1630    0.0081 H         1 <0>         0.1149
     47 H7          3.3028    2.0064   -0.0198 H         1 <0>         0.1102
     48 H8         -0.9246   -0.5587    0.0082 H         1 <0>         0.1148
     49 H9          3.5346   -3.0459   -0.0490 H         1 <0>         0.1649
     50 H10         1.1742   -4.1414    0.4036 H         1 <0>         0.0757
     51 H11        -0.2127   -3.0396    0.5787 H         1 <0>         0.0835
     52 H12        -0.9944   -5.0354   -2.4727 H         1 <0>         0.0757
     53 H13        -0.0037   -5.7090   -1.1563 H         1 <0>         0.0807
     54 H14        -3.8486   -4.7946    0.9889 H         1 <0>         0.1474
     55 H15        -4.8943   -8.7670   -0.2440 H         1 <0>         0.1596
     56 H16        -1.5224   -6.9731   -1.8634 H         1 <0>         0.1584
     57 H17        -5.3157   -4.7674    2.0846 H         1 <0>         0.1394
     58 H18        -7.2731   -4.7187    3.5689 H         1 <0>         0.1380
     59 H19        -6.3400   -8.7401    0.8475 H         1 <0>         0.1384
     60 H20        -1.5182   -2.4936   -1.9356 H         1 <0>         0.4030
     61 H21         2.0613   -2.1767   -2.2474 H         1 <0>         0.1314
     62 H22         3.2149   -0.2570   -3.2559 H         1 <0>         0.1115
     63 H23        -1.7264   -0.3452   -3.0053 H         1 <0>         0.1227
     64 H24         0.5045    4.6037   -4.5731 H         1 <0>         0.4083
     65 H25        -8.7307   -9.6459    2.1904 H         1 <0>         0.4377
@<TRIPOS>BOND
     1    1    6 ar
     2    1    2 ar
     3    1   45 1
     4    2    3 ar
     5    2   46 1
     6    3    4 ar
     7    3   47 1
     8    4    9 1
     9    4    5 ar
    10    5    6 ar
    11    5    7 1
    12    6   48 1
    13    7    8 2
    14    7   11 1
    15    8    9 1
    16    8   49 1
    17    9   10 1
    18   11   12 1
    19   11   50 1
    20   11   51 1
    21   12   13 1
    22   12   14 1
    23   12   33 1
    24   14   15 1
    25   14   52 1
    26   14   53 1
    27   15   16 1
    28   16   21 ar
    29   16   17 ar
    30   17   18 ar
    31   17   54 1
    32   18   19 ar
    33   18   22 1
    34   19   20 ar
    35   19   55 1
    36   20   21 ar
    37   21   56 1
    38   22   27 ar
    39   22   23 ar
    40   23   24 ar
    41   23   57 1
    42   24   25 ar
    43   24   58 1
    44   25   30 1
    45   25   26 ar
    46   26   27 ar
    47   26   28 1
    48   27   59 1
    49   28   29 am
    50   28   65 1
    51   29   30 am
    52   29   32 2
    53   30   31 1
    54   33   34 1
    55   33   60 1
    56   34   39 ar
    57   34   35 ar
    58   35   36 ar
    59   35   61 1
    60   36   37 ar
    61   36   62 1
    62   37   42 1
    63   37   38 ar
    64   38   39 ar
    65   38   40 1
    66   39   63 1
    67   40   41 2
    68   41   42 1
    69   41   44 1
    70   42   43 1
    71   44   64 1
@<TRIPOS>MOLECULE
CHEMBL259753
   70    76     0     0     0
SMALL
USER_CHARGES

@<TRIPOS>ATOM
      1 C1         -0.0167    1.3791    0.0096 C.ar      1 <0>        -0.1085
      2 C2          1.1686    2.0924    0.0021 C.ar      1 <0>        -0.1120
      3 C3          2.3774    1.4270   -0.0134 C.ar      1 <0>        -0.1011
      4 C4          2.4026    0.0330   -0.0211 C.ar      1 <0>        -0.0522
      5 C5          1.2048   -0.6804   -0.0130 C.ar      1 <0>        -0.0981
      6 C6          0.0021   -0.0041    0.0020 C.ar      1 <0>        -0.1224
      7 C7          3.6978   -0.6876   -0.0382 C.ar      1 <0>        -0.0760
      8 C8          4.6736   -0.3463   -0.9588 C.ar      1 <0>        -0.0249
      9 C9          5.8879   -1.0587   -0.9363 C.ar      1 <0>         0.0869
     10 C10         6.0624   -2.0898    0.0207 C.ar      1 <0>         0.0805
     11 C11         7.2812   -2.7981    0.0363 C.ar      1 <0>        -0.0420
     12 C12         8.2397   -2.4568   -0.8742 C.ar      1 <0>        -0.1525
     13 C13         8.0003   -1.4315   -1.7873 C.ar      1 <0>         0.1467
     14 N1          6.8660   -0.7742   -1.8006 N.ar      1 <0>        -0.4651
     15 N2          5.0907   -2.3816    0.8874 N.ar      1 <0>        -0.4452
     16 C14         3.9482   -1.7252    0.8895 C.ar      1 <0>         0.1912
     17 C15         2.9046   -2.0847    1.8779 C.ar      1 <0>        -0.0087
     18 C16         2.0771   -1.0977    2.4124 C.ar      1 <0>        -0.0821
     19 C17         1.1070   -1.4387    3.3326 C.ar      1 <0>        -0.0995
     20 C18         0.9548   -2.7564    3.7253 C.ar      1 <0>        -0.1506
     21 C19         1.7727   -3.7399    3.1985 C.ar      1 <0>        -0.0964
     22 C20         2.7423   -3.4121    2.2730 C.ar      1 <0>        -0.0764
     23 C21        -0.1060   -3.1219    4.7314 C.3       1 <0>         0.0434
     24 N3         -1.3564   -3.4425    4.0301 N.4       1 <0>        -0.3835
     25 C22        -1.8541   -2.2423    3.3471 C.3       1 <0>        -0.0113
     26 C23        -3.1124   -2.5901    2.5488 C.3       1 <0>        -0.1379
     27 C24        -4.1866   -3.1182    3.5039 C.3       1 <0>         0.0021
     28 C25        -3.6302   -4.3250    4.2650 C.3       1 <0>        -0.1401
     29 C26        -2.3527   -3.9130    4.9998 C.3       1 <0>        -0.0033
     30 C27        -5.4009   -3.5360    2.7152 C.2       1 <0>         0.2199
     31 N4         -6.6203   -3.0248    2.8508 N.2       1 <0>        -0.5190
     32 C28        -7.4464   -3.6131    2.0101 C.2       1 <0>         0.3519
     33 N5         -6.7406   -4.5309    1.3109 N.pl3     1 <0>        -0.4477
     34 H1         -7.0779   -5.1208    0.6187 H         1 <0>         0.4543
     35 N6         -5.4206   -4.4555    1.7845 N.2       1 <0>        -0.3001
     36 C29        -8.8897   -3.3222    1.8582 C.ar      1 <0>         0.1604
     37 C30        -9.4841   -2.3395    2.6490 C.ar      1 <0>        -0.1102
     38 C31       -10.8347   -2.0786    2.4950 C.ar      1 <0>        -0.0738
     39 C32       -11.5475   -2.8091    1.5548 C.ar      1 <0>        -0.1435
     40 C33       -10.8941   -3.7696    0.8039 C.ar      1 <0>         0.1096
     41 N7         -9.6068   -3.9950    0.9664 N.ar      1 <0>        -0.4750
     42 H2         -0.9603    1.9042    0.0260 H         1 <0>         0.1264
     43 H3          1.1478    3.1722    0.0081 H         1 <0>         0.1304
     44 H4          3.3021    1.9849   -0.0199 H         1 <0>         0.1286
     45 H5          1.2183   -1.7603   -0.0192 H         1 <0>         0.1204
     46 H6         -0.9264   -0.5557    0.0079 H         1 <0>         0.1226
     47 H7          4.5080    0.4448   -1.6751 H         1 <0>         0.1553
     48 H8          7.4525   -3.5902    0.7502 H         1 <0>         0.1511
     49 H9          9.1837   -2.9812   -0.8865 H         1 <0>         0.1520
     50 H10         8.7678   -1.1722   -2.5014 H         1 <0>         0.1720
     51 H11         2.1955   -0.0686    2.1071 H         1 <0>         0.1430
     52 H12         0.4654   -0.6752    3.7473 H         1 <0>         0.1351
     53 H13         1.6494   -4.7669    3.5092 H         1 <0>         0.1352
     54 H14         3.3771   -4.1815    1.8588 H         1 <0>         0.1408
     55 H15         0.2210   -3.9888    5.3056 H         1 <0>         0.1387
     56 H16        -0.2726   -2.2815    5.4053 H         1 <0>         0.1375
     57 H17        -2.0929   -1.4772    4.0857 H         1 <0>         0.1331
     58 H18        -1.0873   -1.8658    2.6701 H         1 <0>         0.1366
     59 H19        -3.4814   -1.6973    2.0439 H         1 <0>         0.1152
     60 H20        -2.8746   -3.3550    1.8096 H         1 <0>         0.0960
     61 H21        -4.4615   -2.3361    4.2116 H         1 <0>         0.1175
     62 H22        -4.3693   -4.6724    4.9869 H         1 <0>         0.1163
     63 H23        -3.4032   -5.1260    3.5615 H         1 <0>         0.0966
     64 H24        -1.9541   -4.7699    5.5429 H         1 <0>         0.1358
     65 H25        -2.5809   -3.1123    5.7032 H         1 <0>         0.1338
     66 H26        -8.8991   -1.7901    3.3716 H         1 <0>         0.1515
     67 H27       -11.3229   -1.3237    3.0934 H         1 <0>         0.1489
     68 H28       -12.6027   -2.6296    1.4109 H         1 <0>         0.1481
     69 H29       -11.4464   -4.3399    0.0717 H         1 <0>         0.1699
     70 H30        -1.1828   -4.1668    3.3494 H         1 <0>         0.4234
@<TRIPOS>BOND
     1    1    6 ar
     2    1    2 ar
     3    1   42 1
     4    2    3 ar
     5    2   43 1
     6    3    4 ar
     7    3   44 1
     8    4    5 ar
     9    4    7 1
    10    5    6 ar
    11    5   45 1
    12    6   46 1
    13    7   16 ar
    14    7    8 ar
    15    8    9 ar
    16    8   47 1
    17    9   14 ar
    18    9   10 ar
    19   10   11 ar
    20   10   15 ar
    21   11   12 ar
    22   11   48 1
    23   12   13 ar
    24   12   49 1
    25   13   14 ar
    26   13   50 1
    27   15   16 ar
    28   16   17 1
    29   17   22 ar
    30   17   18 ar
    31   18   19 ar
    32   18   51 1
    33   19   20 ar
    34   19   52 1
    35   20   21 ar
    36   20   23 1
    37   21   22 ar
    38   21   53 1
    39   22   54 1
    40   23   24 1
    41   23   55 1
    42   23   56 1
    43   24   29 1
    44   24   25 1
    45   24   70 1
    46   25   26 1
    47   25   57 1
    48   25   58 1
    49   26   27 1
    50   26   59 1
    51   26   60 1
    52   27   28 1
    53   27   30 1
    54   27   61 1
    55   28   29 1
    56   28   62 1
    57   28   63 1
    58   29   64 1
    59   29   65 1
    60   30   35 2
    61   30   31 1
    62   31   32 2
    63   32   33 1
    64   32   36 1
    65   33   34 1
    66   33   35 1
    67   36   41 ar
    68   36   37 ar
    69   37   38 ar
    70   37   66 1
    71   38   39 ar
    72   38   67 1
    73   39   40 ar
    74   39   68 1
    75   40   41 ar
    76   40   69 1
@<TRIPOS>MOLECULE
CHEMBL259753
   70    76     0     0     0
SMALL
USER_CHARGES

@<TRIPOS>ATOM
      1 C1         -0.0167    1.3791    0.0096 C.ar      1 <0>        -0.1078
      2 C2          1.1686    2.0924    0.0021 C.ar      1 <0>        -0.1114
      3 C3          2.3774    1.4270   -0.0134 C.ar      1 <0>        -0.1008
      4 C4          2.4026    0.0330   -0.0211 C.ar      1 <0>        -0.0526
      5 C5          1.2048   -0.6804   -0.0130 C.ar      1 <0>        -0.0990
      6 C6          0.0021   -0.0041    0.0020 C.ar      1 <0>        -0.1227
      7 C7          3.6978   -0.6876   -0.0382 C.ar      1 <0>        -0.0760
      8 C8          4.6736   -0.3463   -0.9588 C.ar      1 <0>        -0.0246
      9 C9          5.8879   -1.0587   -0.9363 C.ar      1 <0>         0.0874
     10 C10         6.0624   -2.0898    0.0207 C.ar      1 <0>         0.0803
     11 C11         7.2812   -2.7981    0.0363 C.ar      1 <0>        -0.0420
     12 C12         8.2397   -2.4568   -0.8742 C.ar      1 <0>        -0.1522
     13 C13         8.0003   -1.4315   -1.7873 C.ar      1 <0>         0.1472
     14 N1          6.8660   -0.7742   -1.8006 N.ar      1 <0>        -0.4650
     15 N2          5.0907   -2.3816    0.8874 N.ar      1 <0>        -0.4450
     16 C14         3.9482   -1.7252    0.8895 C.ar      1 <0>         0.1897
     17 C15         2.9046   -2.0847    1.8779 C.ar      1 <0>        -0.0067
     18 C16         2.0771   -1.0977    2.4124 C.ar      1 <0>        -0.0816
     19 C17         1.1070   -1.4387    3.3326 C.ar      1 <0>        -0.0992
     20 C18         0.9548   -2.7564    3.7253 C.ar      1 <0>        -0.1527
     21 C19         1.7727   -3.7399    3.1985 C.ar      1 <0>        -0.0966
     22 C20         2.7423   -3.4121    2.2730 C.ar      1 <0>        -0.0769
     23 C21        -0.1060   -3.1219    4.7314 C.3       1 <0>         0.0437
     24 N3         -1.3564   -3.4425    4.0301 N.4       1 <0>        -0.3845
     25 C22        -1.8541   -2.2423    3.3471 C.3       1 <0>        -0.0124
     26 C23        -3.1124   -2.5901    2.5488 C.3       1 <0>        -0.1384
     27 C24        -4.1866   -3.1182    3.5039 C.3       1 <0>        -0.0161
     28 C25        -3.6302   -4.3250    4.2650 C.3       1 <0>        -0.1490
     29 C26        -2.3527   -3.9130    4.9998 C.3       1 <0>        -0.0022
     30 C27        -5.4009   -3.5360    2.7152 C.2       1 <0>         0.2712
     31 N4         -6.4551   -2.7992    2.4860 N.2       1 <0>        -0.4883
     32 C28        -7.3393   -3.4885    1.7522 C.2       1 <0>         0.2883
     33 N5         -6.8450   -4.6825    1.5081 N.2       1 <0>        -0.2781
     34 H1         -4.9640   -5.4770    2.1193 H         1 <0>         0.4404
     35 N6         -5.5826   -4.7298    2.1215 N.pl3     1 <0>        -0.4754
     36 C29        -8.6578   -2.9878    1.2917 C.ar      1 <0>         0.1848
     37 C30        -9.4857   -3.8154    0.5360 C.ar      1 <0>        -0.1315
     38 C31       -10.7129   -3.3346    0.1140 C.ar      1 <0>        -0.0745
     39 C32       -11.0725   -2.0401    0.4621 C.ar      1 <0>        -0.1510
     40 C33       -10.2019   -1.2736    1.2143 C.ar      1 <0>         0.1034
     41 N7         -9.0412   -1.7578    1.6075 N.ar      1 <0>        -0.4470
     42 H2         -0.9603    1.9042    0.0260 H         1 <0>         0.1272
     43 H3          1.1478    3.1722    0.0081 H         1 <0>         0.1309
     44 H4          3.3021    1.9849   -0.0199 H         1 <0>         0.1287
     45 H5          1.2183   -1.7603   -0.0192 H         1 <0>         0.1197
     46 H6         -0.9264   -0.5557    0.0079 H         1 <0>         0.1223
     47 H7          4.5080    0.4448   -1.6751 H         1 <0>         0.1555
     48 H8          7.4525   -3.5902    0.7502 H         1 <0>         0.1511
     49 H9          9.1837   -2.9812   -0.8865 H         1 <0>         0.1522
     50 H10         8.7678   -1.1722   -2.5014 H         1 <0>         0.1723
     51 H11         2.1955   -0.0686    2.1071 H         1 <0>         0.1436
     52 H12         0.4654   -0.6752    3.7473 H         1 <0>         0.1355
     53 H13         1.6494   -4.7669    3.5092 H         1 <0>         0.1348
     54 H14         3.3771   -4.1815    1.8588 H         1 <0>         0.1410
     55 H15         0.2210   -3.9888    5.3056 H         1 <0>         0.1395
     56 H16        -0.2726   -2.2815    5.4053 H         1 <0>         0.1387
     57 H17        -2.0929   -1.4772    4.0857 H         1 <0>         0.1367
     58 H18        -1.0873   -1.8658    2.6701 H         1 <0>         0.1395
     59 H19        -3.4814   -1.6973    2.0439 H         1 <0>         0.1244
     60 H20        -2.8746   -3.3550    1.8096 H         1 <0>         0.0898
     61 H21        -4.4615   -2.3361    4.2116 H         1 <0>         0.1306
     62 H22        -4.3693   -4.6724    4.9869 H         1 <0>         0.1233
     63 H23        -3.4032   -5.1260    3.5615 H         1 <0>         0.0881
     64 H24        -1.9541   -4.7699    5.5429 H         1 <0>         0.1389
     65 H25        -2.5809   -3.1123    5.7032 H         1 <0>         0.1376
     66 H26        -9.1739   -4.8179    0.2828 H         1 <0>         0.1436
     67 H27       -11.3758   -3.9527   -0.4733 H         1 <0>         0.1455
     68 H28       -12.0232   -1.6352    0.1480 H         1 <0>         0.1449
     69 H29       -10.4786   -0.2659    1.4869 H         1 <0>         0.1668
     70 H30        -1.1828   -4.1668    3.3494 H         1 <0>         0.4220
@<TRIPOS>BOND
     1    1    6 ar
     2    1    2 ar
     3    1   42 1
     4    2    3 ar
     5    2   43 1
     6    3    4 ar
     7    3   44 1
     8    4    5 ar
     9    4    7 1
    10    5    6 ar
    11    5   45 1
    12    6   46 1
    13    7   16 ar
    14    7    8 ar
    15    8    9 ar
    16    8   47 1
    17    9   14 ar
    18    9   10 ar
    19   10   11 ar
    20   10   15 ar
    21   11   12 ar
    22   11   48 1
    23   12   13 ar
    24   12   49 1
    25   13   14 ar
    26   13   50 1
    27   15   16 ar
    28   16   17 1
    29   17   22 ar
    30   17   18 ar
    31   18   19 ar
    32   18   51 1
    33   19   20 ar
    34   19   52 1
    35   20   21 ar
    36   20   23 1
    37   21   22 ar
    38   21   53 1
    39   22   54 1
    40   23   24 1
    41   23   55 1
    42   23   56 1
    43   24   29 1
    44   24   25 1
    45   24   70 1
    46   25   26 1
    47   25   57 1
    48   25   58 1
    49   26   27 1
    50   26   59 1
    51   26   60 1
    52   27   28 1
    53   27   61 1
    54   27   30 1
    55   28   29 1
    56   28   62 1
    57   28   63 1
    58   29   64 1
    59   29   65 1
    60   30   31 2
    61   30   35 1
    62   31   32 1
    63   32   36 1
    64   32   33 2
    65   33   35 1
    66   34   35 1
    67   36   41 ar
    68   36   37 ar
    69   37   38 ar
    70   37   66 1
    71   38   39 ar
    72   38   67 1
    73   39   40 ar
    74   39   68 1
    75   40   41 ar
    76   40   69 1
@<TRIPOS>MOLECULE
CHEMBL209564
   62    67     0     0     0
SMALL
USER_CHARGES

@<TRIPOS>ATOM
      1 C1         -0.0165    1.3620    0.0095 C.ar      1 <0>        -0.1188
      2 C2          1.1697    2.0834    0.0021 C.ar      1 <0>        -0.0930
      3 C3          2.3856    1.4362   -0.0134 C.ar      1 <0>        -0.1108
      4 C4          2.4281    0.0456   -0.0212 C.ar      1 <0>         0.0986
      5 C5          1.2234   -0.6807   -0.0132 C.ar      1 <0>        -0.1172
      6 C6          0.0021   -0.0041    0.0020 C.ar      1 <0>        -0.1143
      7 C7          1.6036   -2.0953   -0.0245 C.2       1 <0>        -0.2382
      8 C8          2.9451   -2.1410   -0.0380 C.2       1 <0>         0.1043
      9 N1          3.4551   -0.8713   -0.0363 N.pl3     1 <0>        -0.5842
     10 H1          4.3995   -0.6501   -0.0442 H         1 <0>         0.4266
     11 C9          0.6664   -3.2754   -0.0210 C.3       1 <0>        -0.0554
     12 C10         0.2361   -3.5891   -1.4554 C.3       1 <0>         0.0435
     13 H2          1.1200   -3.7379   -2.0756 H         1 <0>         0.1532
     14 C11        -0.6144   -4.8610   -1.4661 C.3       1 <0>         0.0259
     15 O1         -0.9189   -5.2190   -2.8156 O.3       1 <0>        -0.3219
     16 C12        -1.6731   -6.3340   -3.0030 C.ar      1 <0>         0.0687
     17 C13        -2.0064   -6.7503   -4.2858 C.ar      1 <0>        -0.0907
     18 C14        -2.7834   -7.9023   -4.4264 C.ar      1 <0>        -0.0499
     19 C15        -3.1917   -8.5853   -3.2820 C.ar      1 <0>         0.0904
     20 N2         -2.8527   -8.1543   -2.0845 N.ar      1 <0>        -0.4382
     21 C16        -2.1151   -7.0742   -1.9153 C.ar      1 <0>         0.0257
     22 C17        -3.1687   -8.3912   -5.7730 C.ar      1 <0>        -0.0331
     23 C18        -2.7437   -7.6931   -6.9148 C.ar      1 <0>        -0.1114
     24 C19        -3.0817   -8.1181   -8.1608 C.ar      1 <0>        -0.0734
     25 C20        -3.8672   -9.2717   -8.3177 C.ar      1 <0>        -0.1067
     26 C21        -4.2380   -9.7449   -9.5879 C.ar      1 <0>         0.1579
     27 N3         -4.9715  -10.8245   -9.7022 N.ar      1 <0>        -0.4709
     28 C22        -5.3987  -11.5206   -8.6471 C.ar      1 <0>         0.1497
     29 C23        -5.0875  -11.1363   -7.3560 C.ar      1 <0>        -0.1358
     30 C24        -4.3022   -9.9850   -7.1690 C.ar      1 <0>        -0.0186
     31 C25        -3.9387   -9.5341   -5.8931 C.ar      1 <0>        -0.0868
     32 C26        -6.2257  -12.7326   -8.8640 C.ar      1 <0>        -0.0084
     33 C27        -6.6962  -13.4838   -7.7830 C.ar      1 <0>        -0.1593
     34 C28        -7.4629  -14.6042   -8.0297 C.ar      1 <0>         0.1011
     35 N4         -7.7520  -14.9685   -9.2642 N.ar      1 <0>        -0.4780
     36 C29        -7.3280  -14.2879  -10.3116 C.ar      1 <0>         0.0995
     37 C30        -6.5609  -13.1517  -10.1548 C.ar      1 <0>        -0.1349
     38 N5         -0.5518   -2.4687   -1.9863 N.4       1 <0>        -0.6363
     39 H3         -0.9613    1.8849    0.0259 H         1 <0>         0.1313
     40 H4          1.1388    3.1630    0.0081 H         1 <0>         0.1354
     41 H5          3.3028    2.0064   -0.0198 H         1 <0>         0.1296
     42 H6         -0.9246   -0.5587    0.0082 H         1 <0>         0.1147
     43 H7          3.5346   -3.0459   -0.0490 H         1 <0>         0.1791
     44 H8          1.1742   -4.1414    0.4036 H         1 <0>         0.1218
     45 H9         -0.2127   -3.0396    0.5787 H         1 <0>         0.0999
     46 H10        -0.0618   -5.6715   -0.9910 H         1 <0>         0.1143
     47 H11        -1.5405   -4.6834   -0.9195 H         1 <0>         0.0924
     48 H12        -1.6736   -6.1972   -5.1517 H         1 <0>         0.1500
     49 H13        -3.7929   -9.4773   -3.3782 H         1 <0>         0.1675
     50 H14        -1.8556   -6.7582   -0.9157 H         1 <0>         0.1597
     51 H15        -2.1397   -6.8051   -6.8013 H         1 <0>         0.1301
     52 H16        -2.7469   -7.5695   -9.0288 H         1 <0>         0.1414
     53 H17        -3.9174   -9.2162  -10.4734 H         1 <0>         0.1718
     54 H18        -5.4398  -11.7076   -6.5099 H         1 <0>         0.1463
     55 H19        -4.2599  -10.0708   -5.0126 H         1 <0>         0.1400
     56 H20        -6.4627  -13.1917   -6.7698 H         1 <0>         0.1376
     57 H21        -7.8309  -15.1910   -7.2010 H         1 <0>         0.1612
     58 H22        -7.5884  -14.6220  -11.3051 H         1 <0>         0.1618
     59 H23        -6.2207  -12.5969  -11.0167 H         1 <0>         0.1474
     60 H24        -0.8356   -2.6756   -2.9322 H         1 <0>         0.4391
     61 H25        -1.3700   -2.3311   -1.4122 H         1 <0>         0.4300
     62 H26         0.0090   -1.6300   -1.9793 H         1 <0>         0.4384
@<TRIPOS>BOND
     1    1    6 ar
     2    1    2 ar
     3    1   39 1
     4    2    3 ar
     5    2   40 1
     6    3    4 ar
     7    3   41 1
     8    4    9 1
     9    4    5 ar
    10    5    6 ar
    11    5    7 1
    12    6   42 1
    13    7    8 2
    14    7   11 1
    15    8    9 1
    16    8   43 1
    17    9   10 1
    18   11   12 1
    19   11   44 1
    20   11   45 1
    21   12   13 1
    22   12   14 1
    23   12   38 1
    24   14   15 1
    25   14   46 1
    26   14   47 1
    27   15   16 1
    28   16   21 ar
    29   16   17 ar
    30   17   18 ar
    31   17   48 1
    32   18   19 ar
    33   18   22 1
    34   19   20 ar
    35   19   49 1
    36   20   21 ar
    37   21   50 1
    38   22   31 ar
    39   22   23 ar
    40   23   24 ar
    41   23   51 1
    42   24   25 ar
    43   24   52 1
    44   25   30 ar
    45   25   26 ar
    46   26   27 ar
    47   26   53 1
    48   27   28 ar
    49   28   29 ar
    50   28   32 1
    51   29   30 ar
    52   29   54 1
    53   30   31 ar
    54   31   55 1
    55   32   37 ar
    56   32   33 ar
    57   33   34 ar
    58   33   56 1
    59   34   35 ar
    60   34   57 1
    61   35   36 ar
    62   36   37 ar
    63   36   58 1
    64   37   59 1
    65   38   60 1
    66   38   61 1
    67   38   62 1
@<TRIPOS>MOLECULE
CHEMBL210333
   60    65     0     0     0
SMALL
USER_CHARGES

@<TRIPOS>ATOM
      1 C1         -0.0165    1.3620    0.0095 C.ar      1 <0>        -0.1189
      2 C2          1.1697    2.0834    0.0021 C.ar      1 <0>        -0.0931
      3 C3          2.3856    1.4362   -0.0134 C.ar      1 <0>        -0.1109
      4 C4          2.4281    0.0456   -0.0212 C.ar      1 <0>         0.0986
      5 C5          1.2234   -0.6807   -0.0132 C.ar      1 <0>        -0.1171
      6 C6          0.0021   -0.0041    0.0020 C.ar      1 <0>        -0.1142
      7 C7          1.6036   -2.0953   -0.0245 C.2       1 <0>        -0.2380
      8 C8          2.9451   -2.1410   -0.0380 C.2       1 <0>         0.1042
      9 N1          3.4551   -0.8713   -0.0363 N.pl3     1 <0>        -0.5843
     10 H1          4.3995   -0.6501   -0.0442 H         1 <0>         0.4266
     11 C9          0.6664   -3.2754   -0.0210 C.3       1 <0>        -0.0555
     12 C10         0.2361   -3.5891   -1.4554 C.3       1 <0>         0.0436
     13 H2          1.1200   -3.7379   -2.0756 H         1 <0>         0.1531
     14 C11        -0.6144   -4.8610   -1.4661 C.3       1 <0>         0.0259
     15 O1         -0.9189   -5.2190   -2.8156 O.3       1 <0>        -0.3220
     16 C12        -1.6731   -6.3340   -3.0030 C.ar      1 <0>         0.0684
     17 C13        -2.0063   -6.7503   -4.2858 C.ar      1 <0>        -0.0907
     18 C14        -2.7829   -7.9026   -4.4264 C.ar      1 <0>        -0.0490
     19 C15        -3.1908   -8.5858   -3.2820 C.ar      1 <0>         0.0903
     20 N2         -2.8519   -8.1548   -2.0845 N.ar      1 <0>        -0.4383
     21 C16        -2.1151   -7.0742   -1.9153 C.ar      1 <0>         0.0252
     22 C17        -3.1681   -8.3916   -5.7730 C.ar      1 <0>        -0.0337
     23 C18        -2.7435   -7.6932   -6.9150 C.ar      1 <0>        -0.1128
     24 C19        -3.0811   -8.1180   -8.1610 C.ar      1 <0>        -0.0723
     25 C20        -3.8663   -9.2718   -8.3185 C.ar      1 <0>        -0.1099
     26 C21        -4.2363   -9.7440   -9.5891 C.ar      1 <0>         0.1625
     27 N3         -4.9693  -10.8237   -9.7058 N.ar      1 <0>        -0.4675
     28 C22        -5.3974  -11.5220   -8.6500 C.ar      1 <0>         0.1928
     29 C23        -5.0854  -11.1364   -7.3558 C.ar      1 <0>        -0.1369
     30 C24        -4.3012   -9.9858   -7.1695 C.ar      1 <0>        -0.0163
     31 C25        -3.9376   -9.5346   -5.8931 C.ar      1 <0>        -0.0861
     32 C26        -6.2202  -12.7287   -8.8666 C.2       1 <0>         0.0026
     33 C27        -6.6005  -13.2298  -10.0728 C.2       1 <0>        -0.1440
     34 C28        -7.3685  -14.3809   -9.8098 C.2       1 <0>        -0.2185
     35 C29        -7.4189  -14.5248   -8.4707 C.2       1 <0>        -0.0173
     36 O2         -6.7199  -13.5282   -7.9043 O.3       1 <0>        -0.1712
     37 N4         -0.5518   -2.4687   -1.9863 N.4       1 <0>        -0.6363
     38 H3         -0.9613    1.8849    0.0259 H         1 <0>         0.1313
     39 H4          1.1388    3.1630    0.0081 H         1 <0>         0.1354
     40 H5          3.3028    2.0064   -0.0198 H         1 <0>         0.1295
     41 H6         -0.9246   -0.5587    0.0082 H         1 <0>         0.1148
     42 H7          3.5346   -3.0459   -0.0490 H         1 <0>         0.1792
     43 H8          1.1742   -4.1414    0.4036 H         1 <0>         0.1218
     44 H9         -0.2127   -3.0396    0.5787 H         1 <0>         0.0999
     45 H10        -0.0618   -5.6715   -0.9910 H         1 <0>         0.1142
     46 H11        -1.5405   -4.6834   -0.9195 H         1 <0>         0.0923
     47 H12        -1.6739   -6.1971   -5.1517 H         1 <0>         0.1501
     48 H13        -3.7916   -9.4781   -3.3783 H         1 <0>         0.1677
     49 H14        -1.8556   -6.7582   -0.9157 H         1 <0>         0.1594
     50 H15        -2.1398   -6.8049   -6.8013 H         1 <0>         0.1298
     51 H16        -2.7466   -7.5689   -9.0288 H         1 <0>         0.1415
     52 H17        -3.9153   -9.2142  -10.4738 H         1 <0>         0.1744
     53 H18        -5.4373  -11.7078   -6.5095 H         1 <0>         0.1469
     54 H19        -4.2585  -10.0714   -5.0126 H         1 <0>         0.1400
     55 H20        -6.3604  -12.8233  -11.0441 H         1 <0>         0.1584
     56 H21        -7.8300  -15.0261  -10.5428 H         1 <0>         0.1561
     57 H22        -7.9331  -15.3132   -7.9411 H         1 <0>         0.2109
     58 H23        -1.3700   -2.3311   -1.4122 H         1 <0>         0.4300
     59 H24         0.0090   -1.6300   -1.9793 H         1 <0>         0.4383
     60 H25        -0.8356   -2.6756   -2.9322 H         1 <0>         0.4392
@<TRIPOS>BOND
     1    1    6 ar
     2    1    2 ar
     3    1   38 1
     4    2    3 ar
     5    2   39 1
     6    3    4 ar
     7    3   40 1
     8    4    9 1
     9    4    5 ar
    10    5    6 ar
    11    5    7 1
    12    6   41 1
    13    7    8 2
    14    7   11 1
    15    8    9 1
    16    8   42 1
    17    9   10 1
    18   11   12 1
    19   11   43 1
    20   11   44 1
    21   12   13 1
    22   12   14 1
    23   12   37 1
    24   14   15 1
    25   14   45 1
    26   14   46 1
    27   15   16 1
    28   16   21 ar
    29   16   17 ar
    30   17   18 ar
    31   17   47 1
    32   18   19 ar
    33   18   22 1
    34   19   20 ar
    35   19   48 1
    36   20   21 ar
    37   21   49 1
    38   22   31 ar
    39   22   23 ar
    40   23   24 ar
    41   23   50 1
    42   24   25 ar
    43   24   51 1
    44   25   30 ar
    45   25   26 ar
    46   26   27 ar
    47   26   52 1
    48   27   28 ar
    49   28   29 ar
    50   28   32 1
    51   29   30 ar
    52   29   53 1
    53   30   31 ar
    54   31   54 1
    55   32   36 1
    56   32   33 2
    57   33   34 1
    58   33   55 1
    59   34   35 2
    60   34   56 1
    61   35   36 1
    62   35   57 1
    63   37   58 1
    64   37   59 1
    65   37   60 1
@<TRIPOS>MOLECULE
CHEMBL211224
   61    67     0     0     0
SMALL
USER_CHARGES

@<TRIPOS>ATOM
      1 C1         -0.0165    1.3620    0.0095 C.ar      1 <0>        -0.1416
      2 C2          1.1697    2.0834    0.0021 C.ar      1 <0>        -0.0950
      3 C3          2.3856    1.4362   -0.0134 C.ar      1 <0>        -0.1328
      4 C4          2.4281    0.0456   -0.0212 C.ar      1 <0>         0.1094
      5 C5          1.2234   -0.6807   -0.0132 C.ar      1 <0>        -0.0852
      6 C6          0.0021   -0.0041    0.0020 C.ar      1 <0>        -0.0627
      7 C7          1.6036   -2.0953   -0.0245 C.2       1 <0>        -0.1805
      8 C8          2.9451   -2.1410   -0.0380 C.2       1 <0>         0.0639
      9 N1          3.4551   -0.8713   -0.0363 N.pl3     1 <0>        -0.5900
     10 H1          4.3995   -0.6501   -0.0442 H         1 <0>         0.4145
     11 C9          0.6664   -3.2754   -0.0210 C.3       1 <0>        -0.0593
     12 C10         0.2361   -3.5891   -1.4554 C.3       1 <0>         0.1641
     13 H2          1.1200   -3.7379   -2.0756 H         1 <0>         0.0998
     14 C11        -0.6144   -4.8610   -1.4661 C.3       1 <0>         0.0455
     15 O1         -1.7110   -4.7083   -0.5627 O.3       1 <0>        -0.3008
     16 C12        -2.5699   -5.7559   -0.4522 C.ar      1 <0>         0.0900
     17 C13        -3.6632   -5.6814    0.4009 C.ar      1 <0>        -0.0941
     18 C14        -4.5178   -6.7856    0.4795 C.ar      1 <0>        -0.0196
     19 C15        -4.2401   -7.9113   -0.2974 C.ar      1 <0>         0.0887
     20 N2         -3.1908   -7.9369   -1.0924 N.ar      1 <0>        -0.4385
     21 C16        -2.3682   -6.9110   -1.1951 C.ar      1 <0>         0.0248
     22 C17        -5.6968   -6.7610    1.3720 C.2       1 <0>        -0.0936
     23 C18        -6.6171   -7.7348    1.5732 C.2       1 <0>        -0.1064
     24 C19        -7.7033   -7.4952    2.5047 C.ar      1 <0>        -0.1468
     25 C20        -8.7718   -8.3424    2.8793 C.ar      1 <0>         0.1688
     26 N3         -9.6699   -7.9472    3.7475 N.ar      1 <0>        -0.4899
     27 C21        -9.6488   -6.7573    4.3264 C.ar      1 <0>         0.1167
     28 C22        -8.6552   -5.8597    4.0330 C.ar      1 <0>        -0.1278
     29 C23        -7.6817   -6.2221    3.1249 C.ar      1 <0>        -0.0864
     30 S1         -6.2416   -5.4457    2.4457 S.3       1 <0>         0.0811
     31 N4         -0.5497   -2.4718   -1.9849 N.pl3     1 <0>        -0.6930
     32 C24         0.0929   -1.3799   -2.5581 C.2       1 <0>         0.1852
     33 C25        -0.4605   -0.2679   -3.0880 C.2       1 <0>        -0.2587
     34 C26         0.4074    0.7598   -3.6384 C.ar      1 <0>        -0.0776
     35 C27         0.0710    1.9935   -4.2389 C.ar      1 <0>         0.1333
     36 N5          1.0001    2.8035   -4.6840 N.ar      1 <0>        -0.4839
     37 C28         2.2940    2.5375   -4.6085 C.ar      1 <0>         0.0854
     38 C29         2.7298    1.3566   -4.0391 C.ar      1 <0>        -0.1173
     39 C30         1.7906    0.4711   -3.5554 C.ar      1 <0>        -0.1164
     40 S2          1.8439   -1.1116   -2.7614 S.3       1 <0>         0.0842
     41 H3         -0.9613    1.8849    0.0259 H         1 <0>         0.1152
     42 H4          1.1388    3.1630    0.0081 H         1 <0>         0.1183
     43 H5          3.3028    2.0064   -0.0198 H         1 <0>         0.1136
     44 H6         -0.9246   -0.5587    0.0082 H         1 <0>         0.1119
     45 H7          3.5346   -3.0459   -0.0490 H         1 <0>         0.1660
     46 H8          1.1742   -4.1414    0.4036 H         1 <0>         0.0810
     47 H9         -0.2127   -3.0396    0.5787 H         1 <0>         0.0853
     48 H10        -0.9944   -5.0354   -2.4727 H         1 <0>         0.0788
     49 H11        -0.0037   -5.7090   -1.1563 H         1 <0>         0.0873
     50 H12        -3.8484   -4.7943    0.9885 H         1 <0>         0.1457
     51 H13        -4.8924   -8.7705   -0.2456 H         1 <0>         0.1641
     52 H14        -1.5223   -6.9725   -1.8637 H         1 <0>         0.1625
     53 H15        -6.5434   -8.6753    1.0475 H         1 <0>         0.1485
     54 H16        -8.8487   -9.3277    2.4439 H         1 <0>         0.1645
     55 H17       -10.4197   -6.4915    5.0345 H         1 <0>         0.1691
     56 H18        -8.6348   -4.8877    4.5035 H         1 <0>         0.1454
     57 H19        -1.5182   -2.4936   -1.9356 H         1 <0>         0.4131
     58 H20        -1.5333   -0.1441   -3.1029 H         1 <0>         0.1296
     59 H21        -0.9679    2.2732   -4.3330 H         1 <0>         0.1524
     60 H22         3.0122    3.2462   -4.9937 H         1 <0>         0.1590
     61 H23         3.7842    1.1322   -3.9737 H         1 <0>         0.1313
@<TRIPOS>BOND
     1    1    6 ar
     2    1    2 ar
     3    1   41 1
     4    2    3 ar
     5    2   42 1
     6    3    4 ar
     7    3   43 1
     8    4    9 1
     9    4    5 ar
    10    5    6 ar
    11    5    7 1
    12    6   44 1
    13    7    8 2
    14    7   11 1
    15    8    9 1
    16    8   45 1
    17    9   10 1
    18   11   12 1
    19   11   46 1
    20   11   47 1
    21   12   13 1
    22   12   14 1
    23   12   31 1
    24   14   15 1
    25   14   48 1
    26   14   49 1
    27   15   16 1
    28   16   21 ar
    29   16   17 ar
    30   17   18 ar
    31   17   50 1
    32   18   19 ar
    33   18   22 1
    34   19   20 ar
    35   19   51 1
    36   20   21 ar
    37   21   52 1
    38   22   30 1
    39   22   23 2
    40   23   24 1
    41   23   53 1
    42   24   29 ar
    43   24   25 ar
    44   25   26 ar
    45   25   54 1
    46   26   27 ar
    47   27   28 ar
    48   27   55 1
    49   28   29 ar
    50   28   56 1
    51   29   30 1
    52   31   32 1
    53   31   57 1
    54   32   40 1
    55   32   33 2
    56   33   34 1
    57   33   58 1
    58   34   39 ar
    59   34   35 ar
    60   35   36 ar
    61   35   59 1
    62   36   37 ar
    63   37   38 ar
    64   37   60 1
    65   38   39 ar
    66   38   61 1
    67   39   40 1
@<TRIPOS>MOLECULE
CHEMBL211224
   62    68     0     0     0
SMALL
USER_CHARGES

@<TRIPOS>ATOM
      1 C1         -0.0165    1.3620    0.0095 C.ar      1 <0>        -0.1430
      2 C2          1.1697    2.0834    0.0021 C.ar      1 <0>        -0.1001
      3 C3          2.3856    1.4362   -0.0134 C.ar      1 <0>        -0.1332
      4 C4          2.4281    0.0456   -0.0212 C.ar      1 <0>         0.1028
      5 C5          1.2234   -0.6807   -0.0132 C.ar      1 <0>        -0.0979
      6 C6          0.0021   -0.0041    0.0020 C.ar      1 <0>        -0.0673
      7 C7          1.6036   -2.0953   -0.0245 C.2       1 <0>        -0.1901
      8 C8          2.9451   -2.1410   -0.0380 C.2       1 <0>         0.0732
      9 N1          3.4551   -0.8713   -0.0363 N.pl3     1 <0>        -0.5891
     10 H1          4.3995   -0.6501   -0.0442 H         1 <0>         0.4200
     11 C9          0.6664   -3.2754   -0.0210 C.3       1 <0>        -0.0628
     12 C10         0.2361   -3.5891   -1.4554 C.3       1 <0>         0.1547
     13 H2          1.1200   -3.7379   -2.0756 H         1 <0>         0.1054
     14 C11        -0.6144   -4.8610   -1.4661 C.3       1 <0>         0.0434
     15 O1         -1.7110   -4.7083   -0.5627 O.3       1 <0>        -0.3051
     16 C12        -2.5699   -5.7559   -0.4522 C.ar      1 <0>         0.0836
     17 C13        -3.6632   -5.6814    0.4009 C.ar      1 <0>        -0.0930
     18 C14        -4.5178   -6.7856    0.4795 C.ar      1 <0>        -0.0140
     19 C15        -4.2401   -7.9113   -0.2974 C.ar      1 <0>         0.0932
     20 N2         -3.1908   -7.9369   -1.0924 N.ar      1 <0>        -0.4369
     21 C16        -2.3682   -6.9110   -1.1951 C.ar      1 <0>         0.0251
     22 C17        -5.6968   -6.7610    1.3720 C.2       1 <0>        -0.1029
     23 C18        -6.6171   -7.7348    1.5732 C.2       1 <0>        -0.0979
     24 C19        -7.7033   -7.4952    2.5047 C.ar      1 <0>        -0.1504
     25 C20        -8.7718   -8.3424    2.8793 C.ar      1 <0>         0.1718
     26 N3         -9.6699   -7.9472    3.7475 N.ar      1 <0>        -0.4884
     27 C21        -9.6488   -6.7573    4.3264 C.ar      1 <0>         0.1214
     28 C22        -8.6552   -5.8597    4.0330 C.ar      1 <0>        -0.1296
     29 C23        -7.6817   -6.2221    3.1249 C.ar      1 <0>        -0.0828
     30 S1         -6.2416   -5.4457    2.4457 S.3       1 <0>         0.0761
     31 N4         -0.5497   -2.4718   -1.9849 N.pl3     1 <0>        -0.6682
     32 C24         0.0929   -1.3799   -2.5581 C.2       1 <0>         0.2176
     33 C25        -0.4605   -0.2679   -3.0880 C.2       1 <0>        -0.2778
     34 C26         0.4074    0.7598   -3.6384 C.ar      1 <0>        -0.0303
     35 C27         0.0710    1.9935   -4.2389 C.ar      1 <0>         0.1524
     36 N5          1.0001    2.8035   -4.6840 N.ar      1 <0>        -0.4326
     37 C28         2.2940    2.5374   -4.6088 C.ar      1 <0>         0.0771
     38 C29         2.7298    1.3564   -4.0395 C.ar      1 <0>        -0.0513
     39 C30         1.7906    0.4711   -3.5554 C.ar      1 <0>        -0.1138
     40 S2          1.8439   -1.1116   -2.7614 S.3       1 <0>         0.2050
     41 H3         -0.9613    1.8849    0.0259 H         1 <0>         0.1202
     42 H4          1.1388    3.1630    0.0081 H         1 <0>         0.1220
     43 H5          3.3028    2.0064   -0.0198 H         1 <0>         0.1193
     44 H6         -0.9246   -0.5587    0.0082 H         1 <0>         0.1171
     45 H7          3.5346   -3.0459   -0.0490 H         1 <0>         0.1744
     46 H8          1.1742   -4.1414    0.4036 H         1 <0>         0.0926
     47 H9         -0.2127   -3.0396    0.5787 H         1 <0>         0.0928
     48 H10        -0.9944   -5.0354   -2.4727 H         1 <0>         0.0818
     49 H11        -0.0037   -5.7090   -1.1563 H         1 <0>         0.0943
     50 H12        -3.8484   -4.7943    0.9885 H         1 <0>         0.1457
     51 H13        -4.8924   -8.7705   -0.2456 H         1 <0>         0.1664
     52 H14        -1.5223   -6.9725   -1.8637 H         1 <0>         0.1614
     53 H15        -6.5434   -8.6753    1.0475 H         1 <0>         0.1491
     54 H16        -8.8487   -9.3277    2.4439 H         1 <0>         0.1658
     55 H17       -10.4197   -6.4915    5.0345 H         1 <0>         0.1707
     56 H18        -8.6348   -4.8877    4.5035 H         1 <0>         0.1461
     57 H19        -1.5182   -2.4936   -1.9356 H         1 <0>         0.4242
     58 H20        -1.5333   -0.1441   -3.1029 H         1 <0>         0.1538
     59 H21        -0.9679    2.2732   -4.3330 H         1 <0>         0.2042
     60 H22         3.0122    3.2458   -4.9943 H         1 <0>         0.2083
     61 H23         3.7842    1.1318   -3.9744 H         1 <0>         0.1770
     62 H24         0.7252    3.6407   -5.0895 H         1 <0>         0.4487
@<TRIPOS>BOND
     1    1    6 ar
     2    1    2 ar
     3    1   41 1
     4    2    3 ar
     5    2   42 1
     6    3    4 ar
     7    3   43 1
     8    4    9 1
     9    4    5 ar
    10    5    6 ar
    11    5    7 1
    12    6   44 1
    13    7    8 2
    14    7   11 1
    15    8    9 1
    16    8   45 1
    17    9   10 1
    18   11   12 1
    19   11   46 1
    20   11   47 1
    21   12   13 1
    22   12   14 1
    23   12   31 1
    24   14   15 1
    25   14   48 1
    26   14   49 1
    27   15   16 1
    28   16   21 ar
    29   16   17 ar
    30   17   18 ar
    31   17   50 1
    32   18   19 ar
    33   18   22 1
    34   19   20 ar
    35   19   51 1
    36   20   21 ar
    37   21   52 1
    38   22   30 1
    39   22   23 2
    40   23   24 1
    41   23   53 1
    42   24   29 ar
    43   24   25 ar
    44   25   26 ar
    45   25   54 1
    46   26   27 ar
    47   27   28 ar
    48   27   55 1
    49   28   29 ar
    50   28   56 1
    51   29   30 1
    52   31   32 1
    53   31   57 1
    54   32   40 1
    55   32   33 2
    56   33   34 1
    57   33   58 1
    58   34   39 ar
    59   34   35 ar
    60   35   36 ar
    61   35   59 1
    62   36   37 ar
    63   36   62 1
    64   37   38 ar
    65   37   60 1
    66   38   39 ar
    67   38   61 1
    68   39   40 1
@<TRIPOS>MOLECULE
CHEMBL523695
   44    47     0     0     0
SMALL
USER_CHARGES

@<TRIPOS>ATOM
      1 C1         -0.4399    2.1750    0.4936 C.3       1 <0>        -0.1610
      2 C2         -0.2911    0.6892    0.1600 C.3       1 <0>         0.1018
      3 N1         -1.6130    0.0580    0.1421 N.pl3     1 <0>        -0.4502
      4 C3         -2.2063   -0.6117    1.1779 C.ar      1 <0>         0.1334
      5 C4         -1.8430   -0.9253    2.4977 C.ar      1 <0>        -0.1850
      6 C5         -2.7410   -1.6484    3.2811 C.ar      1 <0>         0.1515
      7 N2         -3.9078   -2.0332    2.7995 N.ar      1 <0>        -0.4818
      8 C6         -4.2922   -1.7628    1.5689 C.ar      1 <0>         0.2250
      9 C7         -3.4626   -1.0427    0.7064 C.ar      1 <0>        -0.0039
     10 N3         -3.5714   -0.6206   -0.5749 N.2       1 <0>        -0.4327
     11 C8         -2.4877    0.0336   -0.9133 C.2       1 <0>         0.3406
     12 C9         -2.2432    0.6497   -2.2360 C.2       1 <0>         0.1280
     13 C10        -3.1697    0.6387   -3.3751 C.2       1 <0>         0.3638
     14 N4         -2.6103    1.2789   -4.3646 N.2       1 <0>        -0.3427
     15 O1         -1.3362    1.7225   -3.9329 O.3       1 <0>         0.0502
     16 N5         -1.1666    1.3029   -2.5905 N.2       1 <0>        -0.2451
     17 N6         -4.4261    0.0475   -3.3957 N.pl3     1 <0>        -0.8007
     18 C11        -0.5400   -0.4994    3.0427 C.2       1 <0>         0.5917
     19 O2         -0.1888    0.6604    2.9425 O.2       1 <0>        -0.4998
     20 N7          0.2613   -1.3959    3.6516 N.am      1 <0>        -0.6188
     21 C12         0.0139   -2.8421    3.7446 C.3       1 <0>         0.0936
     22 C13         1.1795   -3.4557    4.5485 C.3       1 <0>        -0.1468
     23 C14         1.7261   -2.2436    5.3481 C.3       1 <0>         0.0054
     24 H1          1.1390   -2.0741    6.2507 H         1 <0>         0.1644
     25 C15         1.5342   -1.0895    4.3293 C.3       1 <0>         0.0933
     26 N8          3.1469   -2.4253    5.6741 N.4       1 <0>        -0.6274
     27 H2          0.5436    2.6446    0.5069 H         1 <0>         0.0832
     28 H3         -1.0622    2.6563   -0.2608 H         1 <0>         0.0604
     29 H4         -0.9072    2.2825    1.4725 H         1 <0>         0.0754
     30 H5          0.1761    0.5817   -0.8189 H         1 <0>         0.1033
     31 H6          0.3312    0.2080    0.9144 H         1 <0>         0.0948
     32 H7         -2.4775   -1.8981    4.2982 H         1 <0>         0.1688
     33 H8         -5.2580   -2.1010    1.2237 H         1 <0>         0.1836
     34 H9         -4.7599   -0.4097   -2.6081 H         1 <0>         0.4301
     35 H10        -4.9697    0.0916   -4.1978 H         1 <0>         0.4215
     36 H11        -0.9288   -3.0245    4.2606 H         1 <0>         0.0938
     37 H12        -0.0175   -3.2778    2.7459 H         1 <0>         0.0916
     38 H13         0.8166   -4.2309    5.2234 H         1 <0>         0.1194
     39 H14         1.9431   -3.8521    3.8792 H         1 <0>         0.1031
     40 H15         2.3531   -1.0753    3.6100 H         1 <0>         0.0909
     41 H16         1.4672   -0.1333    4.8481 H         1 <0>         0.1112
     42 H17         3.6786   -2.5166    4.8214 H         1 <0>         0.4361
     43 H18         3.4779   -1.6256    6.1928 H         1 <0>         0.4423
     44 H19         3.2602   -3.2584    6.2319 H         1 <0>         0.4435
@<TRIPOS>BOND
     1    1    2 1
     2    1   27 1
     3    1   28 1
     4    1   29 1
     5    2    3 1
     6    2   30 1
     7    2   31 1
     8    3   11 1
     9    3    4 1
    10    4    9 ar
    11    4    5 ar
    12    5    6 ar
    13    5   18 1
    14    6    7 ar
    15    6   32 1
    16    7    8 ar
    17    8    9 ar
    18    8   33 1
    19    9   10 1
    20   10   11 2
    21   11   12 1
    22   12   16 2
    23   12   13 1
    24   13   14 2
    25   13   17 1
    26   14   15 1
    27   15   16 1
    28   17   34 1
    29   17   35 1
    30   18   19 2
    31   18   20 am
    32   20   25 1
    33   20   21 1
    34   21   22 1
    35   21   36 1
    36   21   37 1
    37   22   23 1
    38   22   38 1
    39   22   39 1
    40   23   24 1
    41   23   25 1
    42   23   26 1
    43   25   40 1
    44   25   41 1
    45   26   42 1
    46   26   43 1
    47   26   44 1
@<TRIPOS>MOLECULE
CHEMBL493066
   44    47     0     0     0
SMALL
USER_CHARGES

@<TRIPOS>ATOM
      1 C1         -0.2102    2.1474   -0.5608 C.3       1 <0>        -0.1628
      2 C2          0.0202    0.6549   -0.3155 C.3       1 <0>         0.1025
      3 N1          0.6945    0.0677   -1.4760 N.pl3     1 <0>        -0.4507
      4 C3          0.0930   -0.5717   -2.5261 C.ar      1 <0>         0.1322
      5 C4         -1.2312   -0.8841   -2.8739 C.ar      1 <0>        -0.1936
      6 C5         -1.4622   -1.5693   -4.0656 C.ar      1 <0>         0.1495
      7 N2         -0.4636   -1.9199   -4.8537 N.ar      1 <0>        -0.4806
      8 C6          0.7939   -1.6490   -4.5698 C.ar      1 <0>         0.2269
      9 C7          1.1276   -0.9655   -3.3984 C.ar      1 <0>        -0.0033
     10 N3          2.2916   -0.5527   -2.8450 N.2       1 <0>        -0.4320
     11 C8          2.0446    0.0619   -1.7144 C.2       1 <0>         0.3429
     12 C9          3.0684    0.6564   -0.8271 C.2       1 <0>         0.1264
     13 C10         4.5166    0.6649   -1.0688 C.2       1 <0>         0.3634
     14 N4          5.0949    1.2763   -0.0720 N.2       1 <0>        -0.3413
     15 O1          4.0861    1.6817    0.8360 O.3       1 <0>         0.0517
     16 N5          2.8389    1.2700    0.3052 N.2       1 <0>        -0.2450
     17 N6          5.1606    0.1154   -2.1696 N.pl3     1 <0>        -0.8007
     18 C11        -2.3527   -0.4963   -1.9974 C.2       1 <0>         0.5784
     19 O2         -2.4526    0.6519   -1.6100 O.2       1 <0>        -0.4921
     20 N7         -3.2665   -1.4147   -1.6260 N.am      1 <0>        -0.6295
     21 C12        -3.0967   -2.8341   -1.9733 C.3       1 <0>         0.0764
     22 C13        -3.2790   -3.6703   -0.7023 C.3       1 <0>        -0.0211
     23 N8         -4.5723   -3.3475   -0.0865 N.4       1 <0>        -0.5052
     24 C14        -4.5796   -1.9478    0.3571 C.3       1 <0>        -0.0207
     25 C15        -4.4589   -1.0271   -0.8566 C.3       1 <0>         0.0860
     26 H1          0.7486    2.6429   -0.7130 H         1 <0>         0.0612
     27 H2         -0.8316    2.2783   -1.4467 H         1 <0>         0.0763
     28 H3         -0.7119    2.5843    0.3027 H         1 <0>         0.0844
     29 H4          0.6416    0.5240    0.5705 H         1 <0>         0.1037
     30 H5         -0.9386    0.1594   -0.1632 H         1 <0>         0.0929
     31 H6         -2.4746   -1.8175   -4.3482 H         1 <0>         0.1707
     32 H7          1.5743   -1.9585   -5.2493 H         1 <0>         0.1845
     33 H8          4.6448   -0.3226   -2.8646 H         1 <0>         0.4299
     34 H9          6.1263    0.1697   -2.2436 H         1 <0>         0.4220
     35 H10        -3.8447   -3.1224   -2.7119 H         1 <0>         0.1065
     36 H11        -2.0974   -2.9952   -2.3776 H         1 <0>         0.1308
     37 H12        -3.2521   -4.7297   -0.9573 H         1 <0>         0.1515
     38 H13        -2.4760   -3.4447   -0.0006 H         1 <0>         0.1342
     39 H14        -5.3093   -3.4891   -0.7610 H         1 <0>         0.4310
     40 H15        -5.5111   -1.7380    0.8827 H         1 <0>         0.1508
     41 H16        -3.7372   -1.7744    1.0267 H         1 <0>         0.1345
     42 H17        -4.3598    0.0058   -0.5229 H         1 <0>         0.1389
     43 H18        -5.3468   -1.1299   -1.4804 H         1 <0>         0.1016
     44 H19        -4.7256   -3.9514    0.7071 H         1 <0>         0.4371
@<TRIPOS>BOND
     1    1    2 1
     2    1   26 1
     3    1   27 1
     4    1   28 1
     5    2    3 1
     6    2   29 1
     7    2   30 1
     8    3   11 1
     9    3    4 1
    10    4    9 ar
    11    4    5 ar
    12    5    6 ar
    13    5   18 1
    14    6    7 ar
    15    6   31 1
    16    7    8 ar
    17    8    9 ar
    18    8   32 1
    19    9   10 1
    20   10   11 2
    21   11   12 1
    22   12   16 2
    23   12   13 1
    24   13   14 2
    25   13   17 1
    26   14   15 1
    27   15   16 1
    28   17   33 1
    29   17   34 1
    30   18   19 2
    31   18   20 am
    32   20   25 1
    33   20   21 1
    34   21   22 1
    35   21   35 1
    36   21   36 1
    37   22   23 1
    38   22   37 1
    39   22   38 1
    40   23   24 1
    41   23   39 1
    42   23   44 1
    43   24   25 1
    44   24   40 1
    45   24   41 1
    46   25   42 1
    47   25   43 1
@<TRIPOS>MOLECULE
CHEMBL493066
   43    46     0     0     0
SMALL
USER_CHARGES

@<TRIPOS>ATOM
      1 C1         -0.1134    1.7675   -0.2158 C.3       1 <0>        -0.1615
      2 C2          0.0214    0.2477   -0.1014 C.3       1 <0>         0.0741
      3 N1          0.7011   -0.2731   -1.2901 N.pl3     1 <0>        -0.4463
      4 C3          0.1012   -0.7400   -2.4283 C.ar      1 <0>         0.1301
      5 C4         -1.2255   -0.8908   -2.8635 C.ar      1 <0>        -0.1712
      6 C5         -1.4534   -1.4222   -4.1318 C.ar      1 <0>         0.1456
      7 N2         -0.4497   -1.7779   -4.9111 N.ar      1 <0>        -0.4789
      8 C6          0.8103   -1.6553   -4.5468 C.ar      1 <0>         0.2114
      9 C7          1.1412   -1.1329   -3.2945 C.ar      1 <0>        -0.0052
     10 N3          2.3067   -0.8896   -2.6509 N.2       1 <0>        -0.4356
     11 C8          2.0560   -0.3778   -1.4710 C.2       1 <0>         0.3298
     12 C9          3.0805    0.0230   -0.4817 C.2       1 <0>         0.1337
     13 C10         4.5345   -0.0762   -0.6601 C.2       1 <0>         0.3648
     14 N4          5.1115    0.3708    0.4211 N.2       1 <0>        -0.3484
     15 O1          4.0963    0.7690    1.3251 O.3       1 <0>         0.0452
     16 N5          2.8471    0.5321    0.7005 N.2       1 <0>        -0.2454
     17 N6          5.1842   -0.5632   -1.7867 N.pl3     1 <0>        -0.8009
     18 C11        -2.3527   -0.4963   -1.9974 C.2       1 <0>         0.5676
     19 O2         -2.4983   -1.0231   -0.9113 O.2       1 <0>        -0.5260
     20 N7         -3.2211    0.4482   -2.4101 N.am      1 <0>        -0.6018
     21 C12        -3.1294    1.0188   -3.7626 C.3       1 <0>         0.1031
     22 C13        -3.1234    2.5468   -3.6469 C.3       1 <0>         0.0429
     23 N8         -4.2909    2.9802   -2.8677 N.3       1 <0>        -0.6876
     24 C14        -4.2341    2.4669   -1.4925 C.3       1 <0>         0.0424
     25 C15        -4.2894    0.9312   -1.5220 C.3       1 <0>         0.1142
     26 H1          0.8773    2.2153   -0.2934 H         1 <0>         0.0634
     27 H2         -0.6945    2.0148   -1.1042 H         1 <0>         0.0561
     28 H3         -0.6191    2.1550    0.6686 H         1 <0>         0.0862
     29 H4          0.6025    0.0004    0.7870 H         1 <0>         0.1071
     30 H5         -0.9693   -0.2001   -0.0238 H         1 <0>         0.1255
     31 H6         -2.4676   -1.5450   -4.4821 H         1 <0>         0.1726
     32 H7          1.5948   -1.9617   -5.2229 H         1 <0>         0.1796
     33 H8          4.6688   -0.8761   -2.5465 H         1 <0>         0.4308
     34 H9          6.1535   -0.5905   -1.8137 H         1 <0>         0.4195
     35 H10        -2.2082    0.6841   -4.2395 H         1 <0>         0.0897
     36 H11        -3.9879    0.6997   -4.3536 H         1 <0>         0.0875
     37 H12        -2.2111    2.8700   -3.1455 H         1 <0>         0.0342
     38 H13        -3.1671    2.9871   -4.6430 H         1 <0>         0.0926
     39 H14        -4.3776    3.9855   -2.8751 H         1 <0>         0.3507
     40 H15        -3.3063    2.7912   -1.0211 H         1 <0>         0.0361
     41 H16        -5.0833    2.8493   -0.9261 H         1 <0>         0.0924
     42 H17        -5.2573    0.6039   -1.9018 H         1 <0>         0.0827
     43 H18        -4.1355    0.5386   -0.5169 H         1 <0>         0.0975
@<TRIPOS>BOND
     1    1    2 1
     2    1   26 1
     3    1   27 1
     4    1   28 1
     5    2    3 1
     6    2   29 1
     7    2   30 1
     8    3   11 1
     9    3    4 1
    10    4    9 ar
    11    4    5 ar
    12    5    6 ar
    13    5   18 1
    14    6    7 ar
    15    6   31 1
    16    7    8 ar
    17    8    9 ar
    18    8   32 1
    19    9   10 1
    20   10   11 2
    21   11   12 1
    22   12   16 2
    23   12   13 1
    24   13   14 2
    25   13   17 1
    26   14   15 1
    27   15   16 1
    28   17   33 1
    29   17   34 1
    30   18   19 2
    31   18   20 am
    32   20   25 1
    33   20   21 1
    34   21   22 1
    35   21   35 1
    36   21   36 1
    37   22   23 1
    38   22   37 1
    39   22   38 1
    40   23   24 1
    41   23   39 1
    42   24   25 1
    43   24   40 1
    44   24   41 1
    45   25   42 1
    46   25   43 1
@<TRIPOS>MOLECULE
CHEMBL376959
   67    73     0     0     0
SMALL
USER_CHARGES

@<TRIPOS>ATOM
      1 C1         -0.0165    1.3620    0.0095 C.ar      1 <0>        -0.1381
      2 C2          1.1697    2.0834    0.0021 C.ar      1 <0>        -0.0889
      3 C3          2.3856    1.4362   -0.0134 C.ar      1 <0>        -0.1378
      4 C4          2.4281    0.0456   -0.0212 C.ar      1 <0>         0.1051
      5 C5          1.2234   -0.6807   -0.0132 C.ar      1 <0>        -0.0746
      6 C6          0.0021   -0.0041    0.0020 C.ar      1 <0>        -0.0493
      7 C7          1.6036   -2.0953   -0.0245 C.2       1 <0>        -0.1506
      8 C8          2.9451   -2.1410   -0.0380 C.2       1 <0>         0.0317
      9 N1          3.4551   -0.8713   -0.0363 N.pl3     1 <0>        -0.5971
     10 H1          4.3995   -0.6501   -0.0442 H         1 <0>         0.4080
     11 C9          0.6664   -3.2754   -0.0210 C.3       1 <0>        -0.0600
     12 C10         0.2361   -3.5891   -1.4554 C.3       1 <0>         0.1718
     13 H2          1.1200   -3.7379   -2.0756 H         1 <0>         0.0930
     14 C11        -0.6144   -4.8610   -1.4661 C.3       1 <0>         0.0481
     15 O1         -1.7110   -4.7083   -0.5627 O.3       1 <0>        -0.3012
     16 C12        -2.5699   -5.7559   -0.4522 C.ar      1 <0>         0.0880
     17 C13        -3.6637   -5.6816    0.4011 C.ar      1 <0>        -0.1116
     18 C14        -4.5175   -6.7839    0.4793 C.ar      1 <0>        -0.0262
     19 C15        -4.2413   -7.9084   -0.2964 C.ar      1 <0>         0.0625
     20 N2         -3.1923   -7.9355   -1.0924 N.ar      1 <0>        -0.4456
     21 C16        -2.3684   -6.9109   -1.1949 C.ar      1 <0>         0.0001
     22 C17        -5.7003   -6.7585    1.3749 C.ar      1 <0>        -0.0783
     23 C18        -5.9708   -5.6252    2.1437 C.ar      1 <0>        -0.1053
     24 C19        -7.0664   -5.5922    2.9781 C.ar      1 <0>        -0.1299
     25 C20        -7.9149   -6.6912    3.0618 C.ar      1 <0>         0.1112
     26 C21        -7.6451   -7.8307    2.2904 C.ar      1 <0>        -0.0166
     27 C22        -6.5449   -7.8625    1.4455 C.ar      1 <0>        -0.0750
     28 C23        -8.7188   -8.8013    2.6058 C.2       1 <0>        -0.2755
     29 C24        -9.5536   -8.1553    3.5518 C.2       1 <0>         0.4913
     30 N3         -9.0653   -6.9295    3.8008 N.pl3     1 <0>        -0.6275
     31 H3         -9.4639   -6.2943    4.4160 H         1 <0>         0.4015
     32 O2        -10.6572   -8.6846    4.1098 O.3       1 <0>        -0.6177
     33 N4         -8.8671  -10.0123    2.1101 N.2       1 <0>        -0.2577
     34 O3         -9.8049  -10.7044    2.4636 O.2       1 <0>        -0.1442
     35 N5         -0.5497   -2.4718   -1.9849 N.pl3     1 <0>        -0.7437
     36 C25         0.0968   -1.3734   -2.5615 C.ar      1 <0>         0.2091
     37 C26         1.4855   -1.3447   -2.6374 C.ar      1 <0>        -0.1789
     38 C27         2.1339   -0.2671   -3.2038 C.ar      1 <0>        -0.0875
     39 C28         1.4019    0.8024   -3.7055 C.ar      1 <0>         0.0517
     40 C29         0.0031    0.7736   -3.6297 C.ar      1 <0>         0.0347
     41 C30        -0.6470   -0.3157   -3.0628 C.ar      1 <0>        -0.1682
     42 C31        -0.4658    2.0384   -4.2410 C.2       1 <0>        -0.2731
     43 C32         0.7058    2.7306   -4.6383 C.2       1 <0>         0.4932
     44 N6          1.7797    1.9925   -4.3167 N.pl3     1 <0>        -0.6294
     45 H4          2.6978    2.2548   -4.4878 H         1 <0>         0.3928
     46 O4          0.7364    3.9331   -5.2409 O.3       1 <0>        -0.6324
     47 N7         -1.7124    2.4374   -4.3856 N.2       1 <0>        -0.2552
     48 O5         -1.9516    3.5099   -4.9109 O.2       1 <0>        -0.1661
     49 H5         -0.9613    1.8849    0.0259 H         1 <0>         0.1131
     50 H6          1.1388    3.1630    0.0081 H         1 <0>         0.1140
     51 H7          3.3028    2.0064   -0.0198 H         1 <0>         0.1068
     52 H8         -0.9246   -0.5587    0.0082 H         1 <0>         0.1128
     53 H9          3.5346   -3.0459   -0.0490 H         1 <0>         0.1592
     54 H10         1.1742   -4.1414    0.4036 H         1 <0>         0.0693
     55 H11        -0.2127   -3.0396    0.5787 H         1 <0>         0.0808
     56 H12        -0.9944   -5.0354   -2.4727 H         1 <0>         0.0718
     57 H13        -0.0037   -5.7090   -1.1563 H         1 <0>         0.0743
     58 H14        -3.8486   -4.7946    0.9889 H         1 <0>         0.1439
     59 H15        -4.8943   -8.7670   -0.2439 H         1 <0>         0.1604
     60 H16        -1.5224   -6.9731   -1.8634 H         1 <0>         0.1531
     61 H17        -5.3163   -4.7682    2.0842 H         1 <0>         0.1245
     62 H18        -7.2668   -4.7108    3.5691 H         1 <0>         0.1197
     63 H19        -6.3430   -8.7400    0.8492 H         1 <0>         0.1243
     64 H20        -1.5182   -2.4936   -1.9356 H         1 <0>         0.3984
     65 H21         2.0604   -2.1725   -2.2495 H         1 <0>         0.1168
     66 H22         3.2125   -0.2542   -3.2572 H         1 <0>         0.0971
     67 H23        -1.7255   -0.3367   -3.0092 H         1 <0>         0.1090
@<TRIPOS>BOND
     1    1    6 ar
     2    1    2 ar
     3    1   49 1
     4    2    3 ar
     5    2   50 1
     6    3    4 ar
     7    3   51 1
     8    4    9 1
     9    4    5 ar
    10    5    6 ar
    11    5    7 1
    12    6   52 1
    13    7    8 2
    14    7   11 1
    15    8    9 1
    16    8   53 1
    17    9   10 1
    18   11   12 1
    19   11   54 1
    20   11   55 1
    21   12   13 1
    22   12   14 1
    23   12   35 1
    24   14   15 1
    25   14   56 1
    26   14   57 1
    27   15   16 1
    28   16   21 ar
    29   16   17 ar
    30   17   18 ar
    31   17   58 1
    32   18   19 ar
    33   18   22 1
    34   19   20 ar
    35   19   59 1
    36   20   21 ar
    37   21   60 1
    38   22   27 ar
    39   22   23 ar
    40   23   24 ar
    41   23   61 1
    42   24   25 ar
    43   24   62 1
    44   25   30 1
    45   25   26 ar
    46   26   27 ar
    47   26   28 1
    48   27   63 1
    49   28   29 2
    50   28   33 1
    51   29   30 1
    52   29   32 1
    53   30   31 1
    54   33   34 2
    55   35   36 1
    56   35   64 1
    57   36   41 ar
    58   36   37 ar
    59   37   38 ar
    60   37   65 1
    61   38   39 ar
    62   38   66 1
    63   39   44 1
    64   39   40 ar
    65   40   41 ar
    66   40   42 1
    67   41   67 1
    68   42   43 2
    69   42   47 1
    70   43   44 1
    71   43   46 1
    72   44   45 1
    73   47   48 2
@<TRIPOS>MOLECULE
CHEMBL376959
   68    74     0     0     0
SMALL
USER_CHARGES

@<TRIPOS>ATOM
      1 C1         -0.0165    1.3620    0.0095 C.ar      1 <0>        -0.1419
      2 C2          1.1697    2.0834    0.0021 C.ar      1 <0>        -0.0953
      3 C3          2.3856    1.4362   -0.0134 C.ar      1 <0>        -0.1372
      4 C4          2.4281    0.0456   -0.0212 C.ar      1 <0>         0.1025
      5 C5          1.2234   -0.6807   -0.0132 C.ar      1 <0>        -0.0818
      6 C6          0.0021   -0.0041    0.0020 C.ar      1 <0>        -0.0535
      7 C7          1.6036   -2.0953   -0.0245 C.2       1 <0>        -0.1594
      8 C8          2.9451   -2.1410   -0.0380 C.2       1 <0>         0.0412
      9 N1          3.4551   -0.8713   -0.0363 N.pl3     1 <0>        -0.5956
     10 H1          4.3995   -0.6501   -0.0442 H         1 <0>         0.4124
     11 C9          0.6664   -3.2754   -0.0210 C.3       1 <0>        -0.0627
     12 C10         0.2361   -3.5891   -1.4554 C.3       1 <0>         0.1657
     13 H2          1.1200   -3.7379   -2.0756 H         1 <0>         0.0971
     14 C11        -0.6144   -4.8610   -1.4661 C.3       1 <0>         0.0466
     15 O1         -1.7110   -4.7083   -0.5627 O.3       1 <0>        -0.3050
     16 C12        -2.5699   -5.7559   -0.4522 C.ar      1 <0>         0.0823
     17 C13        -3.6637   -5.6816    0.4011 C.ar      1 <0>        -0.1110
     18 C14        -4.5175   -6.7839    0.4793 C.ar      1 <0>        -0.0218
     19 C15        -4.2413   -7.9084   -0.2964 C.ar      1 <0>         0.0667
     20 N2         -3.1923   -7.9355   -1.0924 N.ar      1 <0>        -0.4440
     21 C16        -2.3684   -6.9109   -1.1949 C.ar      1 <0>         0.0003
     22 C17        -5.7003   -6.7585    1.3749 C.ar      1 <0>        -0.0835
     23 C18        -5.9708   -5.6252    2.1437 C.ar      1 <0>        -0.1060
     24 C19        -7.0664   -5.5922    2.9781 C.ar      1 <0>        -0.1309
     25 C20        -7.9149   -6.6912    3.0618 C.ar      1 <0>         0.1146
     26 C21        -7.6451   -7.8307    2.2904 C.ar      1 <0>        -0.0153
     27 C22        -6.5449   -7.8625    1.4455 C.ar      1 <0>        -0.0738
     28 C23        -8.7188   -8.8013    2.6058 C.2       1 <0>        -0.2763
     29 C24        -9.5536   -8.1553    3.5518 C.2       1 <0>         0.4907
     30 N3         -9.0653   -6.9295    3.8008 N.pl3     1 <0>        -0.6274
     31 H3         -9.4639   -6.2943    4.4160 H         1 <0>         0.4021
     32 O2        -10.6572   -8.6846    4.1098 O.3       1 <0>        -0.6135
     33 N4         -8.8671  -10.0123    2.1101 N.2       1 <0>        -0.2593
     34 O3         -9.8049  -10.7044    2.4636 O.2       1 <0>        -0.1380
     35 N5         -0.5497   -2.4718   -1.9849 N.pl3     1 <0>        -0.7314
     36 C25         0.0968   -1.3734   -2.5615 C.ar      1 <0>         0.2429
     37 C26         1.4855   -1.3447   -2.6374 C.ar      1 <0>        -0.1508
     38 C27         2.1339   -0.2671   -3.2038 C.ar      1 <0>        -0.0598
     39 C28         1.4019    0.8024   -3.7055 C.ar      1 <0>         0.0225
     40 C29         0.0031    0.7736   -3.6297 C.ar      1 <0>         0.0274
     41 C30        -0.6470   -0.3157   -3.0628 C.ar      1 <0>        -0.1657
     42 C31        -0.4658    2.0384   -4.2410 C.2       1 <0>        -0.1895
     43 C32         0.7058    2.7306   -4.6383 C.2       1 <0>         0.3897
     44 N6          1.7797    1.9925   -4.3167 N.pl3     1 <0>        -0.5490
     45 H4          2.6978    2.2548   -4.4878 H         1 <0>         0.4175
     46 O4          0.7364    3.9331   -5.2409 O.3       1 <0>        -0.4461
     47 N7         -1.7124    2.4374   -4.3856 N.2       1 <0>        -0.2748
     48 O5         -1.9516    3.5099   -4.9109 O.2       1 <0>         0.0119
     49 H5         -0.9613    1.8849    0.0259 H         1 <0>         0.1151
     50 H6          1.1388    3.1630    0.0081 H         1 <0>         0.1152
     51 H7          3.3028    2.0064   -0.0198 H         1 <0>         0.1102
     52 H8         -0.9246   -0.5587    0.0082 H         1 <0>         0.1158
     53 H9          3.5346   -3.0459   -0.0490 H         1 <0>         0.1659
     54 H10         1.1742   -4.1414    0.4036 H         1 <0>         0.0787
     55 H11        -0.2127   -3.0396    0.5787 H         1 <0>         0.0861
     56 H12        -0.9944   -5.0354   -2.4727 H         1 <0>         0.0736
     57 H13        -0.0037   -5.7090   -1.1563 H         1 <0>         0.0800
     58 H14        -3.8486   -4.7946    0.9889 H         1 <0>         0.1436
     59 H15        -4.8943   -8.7670   -0.2439 H         1 <0>         0.1626
     60 H16        -1.5224   -6.9731   -1.8634 H         1 <0>         0.1520
     61 H17        -5.3163   -4.7682    2.0842 H         1 <0>         0.1225
     62 H18        -7.2668   -4.7108    3.5691 H         1 <0>         0.1198
     63 H19        -6.3430   -8.7400    0.8492 H         1 <0>         0.1246
     64 H20        -1.5182   -2.4936   -1.9356 H         1 <0>         0.4067
     65 H21         2.0604   -2.1725   -2.2495 H         1 <0>         0.1350
     66 H22         3.2125   -0.2542   -3.2572 H         1 <0>         0.1161
     67 H23        -1.7255   -0.3367   -3.0092 H         1 <0>         0.1249
     68 H24         0.7798    4.6794   -4.6275 H         1 <0>         0.4178
@<TRIPOS>BOND
     1    1    6 ar
     2    1    2 ar
     3    1   49 1
     4    2    3 ar
     5    2   50 1
     6    3    4 ar
     7    3   51 1
     8    4    9 1
     9    4    5 ar
    10    5    6 ar
    11    5    7 1
    12    6   52 1
    13    7    8 2
    14    7   11 1
    15    8    9 1
    16    8   53 1
    17    9   10 1
    18   11   12 1
    19   11   54 1
    20   11   55 1
    21   12   13 1
    22   12   14 1
    23   12   35 1
    24   14   15 1
    25   14   56 1
    26   14   57 1
    27   15   16 1
    28   16   21 ar
    29   16   17 ar
    30   17   18 ar
    31   17   58 1
    32   18   19 ar
    33   18   22 1
    34   19   20 ar
    35   19   59 1
    36   20   21 ar
    37   21   60 1
    38   22   27 ar
    39   22   23 ar
    40   23   24 ar
    41   23   61 1
    42   24   25 ar
    43   24   62 1
    44   25   30 1
    45   25   26 ar
    46   26   27 ar
    47   26   28 1
    48   27   63 1
    49   28   29 2
    50   28   33 1
    51   29   30 1
    52   29   32 1
    53   30   31 1
    54   33   34 2
    55   35   36 1
    56   35   64 1
    57   36   41 ar
    58   36   37 ar
    59   37   38 ar
    60   37   65 1
    61   38   39 ar
    62   38   66 1
    63   39   44 1
    64   39   40 ar
    65   40   41 ar
    66   40   42 1
    67   41   67 1
    68   42   43 2
    69   42   47 1
    70   43   44 1
    71   43   46 1
    72   44   45 1
    73   46   68 1
    74   47   48 2
@<TRIPOS>MOLECULE
CHEMBL259967
   70    76     0     0     0
SMALL
USER_CHARGES

@<TRIPOS>ATOM
      1 C1         -0.0167    1.3791    0.0096 C.ar      1 <0>        -0.1093
      2 C2          1.1686    2.0924    0.0021 C.ar      1 <0>        -0.1117
      3 C3          2.3774    1.4269   -0.0134 C.ar      1 <0>        -0.1033
      4 C4          2.4026    0.0330   -0.0211 C.ar      1 <0>        -0.0506
      5 C5          1.2049   -0.6804   -0.0130 C.ar      1 <0>        -0.0996
      6 C6          0.0021   -0.0041    0.0020 C.ar      1 <0>        -0.1218
      7 C7          3.6978   -0.6877   -0.0382 C.ar      1 <0>        -0.0981
      8 C8          4.6745   -0.3459   -0.9599 C.ar      1 <0>        -0.0131
      9 C9          5.8844   -1.0600   -0.9340 C.ar      1 <0>        -0.1608
     10 C10         6.9290   -0.7819   -1.8291 C.ar      1 <0>         0.1653
     11 N1          8.0435   -1.4738   -1.7697 N.ar      1 <0>        -0.4787
     12 C11         8.2362   -2.4439   -0.8867 C.ar      1 <0>         0.1023
     13 C12         7.2846   -2.7901    0.0234 C.ar      1 <0>        -0.1435
     14 C13         6.0604   -2.0937    0.0241 C.ar      1 <0>         0.1618
     15 N2          5.0902   -2.3845    0.8897 N.ar      1 <0>        -0.4593
     16 C14         3.9479   -1.7247    0.8892 C.ar      1 <0>         0.2129
     17 C15         2.9030   -2.0825    1.8767 C.ar      1 <0>        -0.0144
     18 C16         2.0759   -1.0943    2.4098 C.ar      1 <0>        -0.0800
     19 C17         1.1046   -1.4336    3.3292 C.ar      1 <0>        -0.1003
     20 C18         0.9506   -2.7510    3.7226 C.ar      1 <0>        -0.1484
     21 C19         1.7680   -3.7357    3.1972 C.ar      1 <0>        -0.0969
     22 C20         2.7388   -3.4096    2.2725 C.ar      1 <0>        -0.0741
     23 C21        -0.1116   -3.1147    4.7278 C.3       1 <0>         0.0430
     24 N3         -1.3616   -3.4344    4.0255 N.4       1 <0>        -0.3835
     25 C22        -1.8574   -2.2341    3.3412 C.3       1 <0>        -0.0113
     26 C23        -3.1152   -2.5810    2.5419 C.3       1 <0>        -0.1378
     27 C24        -4.1909   -3.1074    3.4963 C.3       1 <0>         0.0022
     28 C25        -3.6366   -4.3143    4.2587 C.3       1 <0>        -0.1401
     29 C26        -2.3595   -3.9032    4.9944 C.3       1 <0>        -0.0034
     30 C27        -5.4049   -3.5243    2.7066 C.2       1 <0>         0.2197
     31 N4         -6.6239   -3.0117    2.8407 N.2       1 <0>        -0.5189
     32 C28        -7.4498   -3.5997    1.9995 C.2       1 <0>         0.3520
     33 N5         -6.7443   -4.5187    1.3016 N.pl3     1 <0>        -0.4476
     34 H1         -7.0815   -5.1086    0.6094 H         1 <0>         0.4543
     35 N6         -5.4247   -4.4444    1.7764 N.2       1 <0>        -0.3002
     36 C29        -8.8926   -3.3073    1.8460 C.ar      1 <0>         0.1603
     37 C30        -9.4868   -2.3235    2.6356 C.ar      1 <0>        -0.1102
     38 C31       -10.8369   -2.0612    2.4801 C.ar      1 <0>        -0.0737
     39 C32       -11.5496   -2.7915    1.5396 C.ar      1 <0>        -0.1433
     40 C33       -10.8965   -3.7532    0.7900 C.ar      1 <0>         0.1095
     41 N7         -9.6095   -3.9799    0.9538 N.ar      1 <0>        -0.4749
     42 H2         -0.9603    1.9042    0.0260 H         1 <0>         0.1263
     43 H3          1.1478    3.1722    0.0081 H         1 <0>         0.1302
     44 H4          3.3021    1.9848   -0.0199 H         1 <0>         0.1282
     45 H5          1.2183   -1.7603   -0.0189 H         1 <0>         0.1198
     46 H6         -0.9264   -0.5557    0.0079 H         1 <0>         0.1224
     47 H7          4.5107    0.4452   -1.6767 H         1 <0>         0.1542
     48 H8          6.8163   -0.0003   -2.5659 H         1 <0>         0.1719
     49 H9          9.1761   -2.9758   -0.8897 H         1 <0>         0.1664
     50 H10         7.4655   -3.5842    0.7326 H         1 <0>         0.1502
     51 H11         2.1957   -0.0654    2.1040 H         1 <0>         0.1433
     52 H12         0.4635   -0.6692    3.7428 H         1 <0>         0.1354
     53 H13         1.6430   -4.7624    3.5081 H         1 <0>         0.1358
     54 H14         3.3732   -4.1799    1.8594 H         1 <0>         0.1414
     55 H15         0.2139   -3.9816    5.3029 H         1 <0>         0.1391
     56 H16        -0.2780   -2.2737    5.4010 H         1 <0>         0.1378
     57 H17        -2.0961   -1.4682    4.0792 H         1 <0>         0.1332
     58 H18        -1.0895   -1.8588    2.6648 H         1 <0>         0.1363
     59 H19        -3.4827   -1.6881    2.0360 H         1 <0>         0.1152
     60 H20        -2.8775   -3.3466    1.8034 H         1 <0>         0.0960
     61 H21        -4.4657   -2.3245    4.2032 H         1 <0>         0.1175
     62 H22        -4.3769   -4.6604    4.9800 H         1 <0>         0.1165
     63 H23        -3.4098   -5.1160    3.5558 H         1 <0>         0.0966
     64 H24        -1.9623   -4.7602    5.5385 H         1 <0>         0.1360
     65 H25        -2.5875   -3.1018    5.6972 H         1 <0>         0.1339
     66 H26        -8.9019   -1.7742    3.3585 H         1 <0>         0.1515
     67 H27       -11.3249   -1.3054    3.0775 H         1 <0>         0.1489
     68 H28       -12.6045   -2.6109    1.3946 H         1 <0>         0.1482
     69 H29       -11.4486   -4.3233    0.0575 H         1 <0>         0.1699
     70 H30        -1.1882   -4.1593    3.3454 H         1 <0>         0.4235
@<TRIPOS>BOND
     1    1    6 ar
     2    1    2 ar
     3    1   42 1
     4    2    3 ar
     5    2   43 1
     6    3    4 ar
     7    3   44 1
     8    4    5 ar
     9    4    7 1
    10    5    6 ar
    11    5   45 1
    12    6   46 1
    13    7   16 ar
    14    7    8 ar
    15    8    9 ar
    16    8   47 1
    17    9   14 ar
    18    9   10 ar
    19   10   11 ar
    20   10   48 1
    21   11   12 ar
    22   12   13 ar
    23   12   49 1
    24   13   14 ar
    25   13   50 1
    26   14   15 ar
    27   15   16 ar
    28   16   17 1
    29   17   22 ar
    30   17   18 ar
    31   18   19 ar
    32   18   51 1
    33   19   20 ar
    34   19   52 1
    35   20   21 ar
    36   20   23 1
    37   21   22 ar
    38   21   53 1
    39   22   54 1
    40   23   24 1
    41   23   55 1
    42   23   56 1
    43   24   29 1
    44   24   25 1
    45   24   70 1
    46   25   26 1
    47   25   57 1
    48   25   58 1
    49   26   27 1
    50   26   59 1
    51   26   60 1
    52   27   28 1
    53   27   30 1
    54   27   61 1
    55   28   29 1
    56   28   62 1
    57   28   63 1
    58   29   64 1
    59   29   65 1
    60   30   35 2
    61   30   31 1
    62   31   32 2
    63   32   33 1
    64   32   36 1
    65   33   34 1
    66   33   35 1
    67   36   41 ar
    68   36   37 ar
    69   37   38 ar
    70   37   66 1
    71   38   39 ar
    72   38   67 1
    73   39   40 ar
    74   39   68 1
    75   40   41 ar
    76   40   69 1
@<TRIPOS>MOLECULE
CHEMBL259967
   70    76     0     0     0
SMALL
USER_CHARGES

@<TRIPOS>ATOM
      1 C1         -0.0167    1.3791    0.0096 C.ar      1 <0>        -0.1086
      2 C2          1.1686    2.0924    0.0021 C.ar      1 <0>        -0.1111
      3 C3          2.3774    1.4269   -0.0134 C.ar      1 <0>        -0.1030
      4 C4          2.4026    0.0330   -0.0211 C.ar      1 <0>        -0.0510
      5 C5          1.2049   -0.6804   -0.0130 C.ar      1 <0>        -0.1005
      6 C6          0.0021   -0.0041    0.0020 C.ar      1 <0>        -0.1221
      7 C7          3.6978   -0.6877   -0.0382 C.ar      1 <0>        -0.0981
      8 C8          4.6745   -0.3459   -0.9599 C.ar      1 <0>        -0.0127
      9 C9          5.8844   -1.0600   -0.9340 C.ar      1 <0>        -0.1605
     10 C10         6.9290   -0.7819   -1.8291 C.ar      1 <0>         0.1655
     11 N1          8.0435   -1.4738   -1.7697 N.ar      1 <0>        -0.4783
     12 C11         8.2362   -2.4439   -0.8867 C.ar      1 <0>         0.1028
     13 C12         7.2846   -2.7901    0.0234 C.ar      1 <0>        -0.1437
     14 C13         6.0604   -2.0937    0.0241 C.ar      1 <0>         0.1617
     15 N2          5.0902   -2.3845    0.8897 N.ar      1 <0>        -0.4591
     16 C14         3.9479   -1.7247    0.8892 C.ar      1 <0>         0.2116
     17 C15         2.9030   -2.0825    1.8767 C.ar      1 <0>        -0.0125
     18 C16         2.0759   -1.0943    2.4098 C.ar      1 <0>        -0.0795
     19 C17         1.1046   -1.4336    3.3292 C.ar      1 <0>        -0.1001
     20 C18         0.9506   -2.7510    3.7226 C.ar      1 <0>        -0.1506
     21 C19         1.7680   -3.7357    3.1972 C.ar      1 <0>        -0.0971
     22 C20         2.7388   -3.4096    2.2725 C.ar      1 <0>        -0.0746
     23 C21        -0.1116   -3.1147    4.7278 C.3       1 <0>         0.0433
     24 N3         -1.3616   -3.4344    4.0255 N.4       1 <0>        -0.3845
     25 C22        -1.8574   -2.2341    3.3412 C.3       1 <0>        -0.0124
     26 C23        -3.1152   -2.5810    2.5419 C.3       1 <0>        -0.1383
     27 C24        -4.1909   -3.1074    3.4963 C.3       1 <0>        -0.0160
     28 C25        -3.6366   -4.3143    4.2587 C.3       1 <0>        -0.1490
     29 C26        -2.3595   -3.9032    4.9944 C.3       1 <0>        -0.0023
     30 C27        -5.4049   -3.5243    2.7066 C.2       1 <0>         0.2711
     31 N4         -6.4581   -2.7866    2.4759 N.2       1 <0>        -0.4884
     32 C28        -7.3424   -3.4753    1.7416 C.2       1 <0>         0.2883
     33 N5         -6.8491   -4.6700    1.4988 N.2       1 <0>        -0.2780
     34 H1         -4.9695   -5.4661    2.1123 H         1 <0>         0.4404
     35 N6         -5.5873   -4.7183    2.1134 N.pl3     1 <0>        -0.4754
     36 C29        -8.6599   -2.9735    1.2795 C.ar      1 <0>         0.1846
     37 C30        -9.4878   -3.8006    0.5235 C.ar      1 <0>        -0.1315
     38 C31       -10.7141   -3.3188    0.1000 C.ar      1 <0>        -0.0745
     39 C32       -11.0726   -2.0236    0.4469 C.ar      1 <0>        -0.1509
     40 C33       -10.2019   -1.2577    1.1995 C.ar      1 <0>         0.1034
     41 N7         -9.0422   -1.7428    1.5942 N.ar      1 <0>        -0.4470
     42 H2         -0.9603    1.9042    0.0260 H         1 <0>         0.1271
     43 H3          1.1478    3.1722    0.0081 H         1 <0>         0.1307
     44 H4          3.3021    1.9848   -0.0199 H         1 <0>         0.1284
     45 H5          1.2183   -1.7603   -0.0189 H         1 <0>         0.1191
     46 H6         -0.9264   -0.5557    0.0079 H         1 <0>         0.1220
     47 H7          4.5107    0.4452   -1.6767 H         1 <0>         0.1544
     48 H8          6.8163   -0.0003   -2.5659 H         1 <0>         0.1722
     49 H9          9.1761   -2.9758   -0.8897 H         1 <0>         0.1666
     50 H10         7.4655   -3.5842    0.7326 H         1 <0>         0.1502
     51 H11         2.1957   -0.0654    2.1040 H         1 <0>         0.1439
     52 H12         0.4635   -0.6692    3.7428 H         1 <0>         0.1359
     53 H13         1.6430   -4.7624    3.5081 H         1 <0>         0.1354
     54 H14         3.3732   -4.1799    1.8594 H         1 <0>         0.1415
     55 H15         0.2139   -3.9816    5.3029 H         1 <0>         0.1399
     56 H16        -0.2780   -2.2737    5.4010 H         1 <0>         0.1390
     57 H17        -2.0961   -1.4682    4.0792 H         1 <0>         0.1368
     58 H18        -1.0895   -1.8588    2.6648 H         1 <0>         0.1392
     59 H19        -3.4827   -1.6881    2.0360 H         1 <0>         0.1245
     60 H20        -2.8775   -3.3466    1.8034 H         1 <0>         0.0898
     61 H21        -4.4657   -2.3245    4.2032 H         1 <0>         0.1306
     62 H22        -4.3769   -4.6604    4.9800 H         1 <0>         0.1235
     63 H23        -3.4098   -5.1160    3.5558 H         1 <0>         0.0882
     64 H24        -1.9623   -4.7602    5.5385 H         1 <0>         0.1390
     65 H25        -2.5875   -3.1018    5.6972 H         1 <0>         0.1377
     66 H26        -9.1768   -4.8037    0.2713 H         1 <0>         0.1436
     67 H27       -11.3771   -3.9365   -0.4876 H         1 <0>         0.1456
     68 H28       -12.0226   -1.6180    0.1316 H         1 <0>         0.1450
     69 H29       -10.4779   -0.2495    1.4712 H         1 <0>         0.1668
     70 H30        -1.1882   -4.1593    3.3454 H         1 <0>         0.4220
@<TRIPOS>BOND
     1    1    6 ar
     2    1    2 ar
     3    1   42 1
     4    2    3 ar
     5    2   43 1
     6    3    4 ar
     7    3   44 1
     8    4    5 ar
     9    4    7 1
    10    5    6 ar
    11    5   45 1
    12    6   46 1
    13    7   16 ar
    14    7    8 ar
    15    8    9 ar
    16    8   47 1
    17    9   14 ar
    18    9   10 ar
    19   10   11 ar
    20   10   48 1
    21   11   12 ar
    22   12   13 ar
    23   12   49 1
    24   13   14 ar
    25   13   50 1
    26   14   15 ar
    27   15   16 ar
    28   16   17 1
    29   17   22 ar
    30   17   18 ar
    31   18   19 ar
    32   18   51 1
    33   19   20 ar
    34   19   52 1
    35   20   21 ar
    36   20   23 1
    37   21   22 ar
    38   21   53 1
    39   22   54 1
    40   23   24 1
    41   23   55 1
    42   23   56 1
    43   24   29 1
    44   24   25 1
    45   24   70 1
    46   25   26 1
    47   25   57 1
    48   25   58 1
    49   26   27 1
    50   26   59 1
    51   26   60 1
    52   27   28 1
    53   27   61 1
    54   27   30 1
    55   28   29 1
    56   28   62 1
    57   28   63 1
    58   29   64 1
    59   29   65 1
    60   30   31 2
    61   30   35 1
    62   31   32 1
    63   32   36 1
    64   32   33 2
    65   33   35 1
    66   34   35 1
    67   36   41 ar
    68   36   37 ar
    69   37   38 ar
    70   37   66 1
    71   38   39 ar
    72   38   67 1
    73   39   40 ar
    74   39   68 1
    75   40   41 ar
    76   40   69 1
@<TRIPOS>MOLECULE
CHEMBL211690
   74    79     0     0     0
SMALL
USER_CHARGES

@<TRIPOS>ATOM
      1 C1         -0.0187    1.5258    0.0104 C.3       1 <0>        -0.1492
      2 C2          0.0021   -0.0041    0.0020 C.3       1 <0>        -0.0305
      3 C3          0.7421   -0.5109    1.2415 C.3       1 <0>        -0.1535
      4 C4         -1.4333   -0.5336    0.0129 C.3       1 <0>        -0.0800
      5 C5         -2.1387   -0.0476    1.2528 C.ar      1 <0>        -0.1265
      6 C6         -2.0984   -0.7933    2.4213 C.ar      1 <0>        -0.0726
      7 C7         -2.7619   -0.3072    3.5373 C.ar      1 <0>        -0.1705
      8 C8         -3.4366    0.8959    3.4488 C.ar      1 <0>         0.0936
      9 N1         -3.4539    1.5781    2.3206 N.ar      1 <0>        -0.4824
     10 C9         -2.8290    1.1493    1.2412 C.ar      1 <0>         0.1024
     11 C10         0.7182   -0.4975   -1.2568 C.3       1 <0>        -0.0750
     12 C11         2.1085    0.0900   -1.3399 C.ar      1 <0>        -0.1249
     13 C12         3.2103   -0.0015   -0.5234 C.ar      1 <0>        -0.0454
     14 C13         4.3853    0.6677   -0.8662 C.ar      1 <0>        -0.0834
     15 C14         4.4299    1.4243   -2.0363 C.ar      1 <0>        -0.0637
     16 C15         3.3219    1.5109   -2.8489 C.ar      1 <0>        -0.1370
     17 C16         2.1456    0.8426   -2.5084 C.ar      1 <0>         0.1666
     18 N2          0.9141    0.7806   -3.1603 N.am      1 <0>        -0.6604
     19 C17         0.0252    0.0207   -2.4989 C.2       1 <0>         0.5341
     20 O1         -1.1179   -0.2073   -2.8341 O.2       1 <0>        -0.4814
     21 C18         5.5796    0.5754    0.0091 C.ar      1 <0>        -0.0335
     22 C19         6.7577    1.2477   -0.3253 C.ar      1 <0>        -0.0987
     23 C20         7.8474    1.1289    0.5274 C.ar      1 <0>         0.0705
     24 C21         7.7292    0.3529    1.6726 C.ar      1 <0>         0.0194
     25 N3          6.6018   -0.2686    1.9572 N.ar      1 <0>        -0.4371
     26 C22         5.5417   -0.1787    1.1803 C.ar      1 <0>         0.0839
     27 O2          9.0152    1.7640    0.2442 O.3       1 <0>        -0.3227
     28 C23        10.0889    1.5916    1.1712 C.3       1 <0>         0.0263
     29 C24        11.3108    2.3753    0.6879 C.3       1 <0>         0.0434
     30 H1         11.5603    2.0690   -0.3280 H         1 <0>         0.1529
     31 C25        12.4968    2.0917    1.6119 C.3       1 <0>        -0.0555
     32 C26        13.7302    2.7648    1.0672 C.2       1 <0>        -0.2378
     33 C27        14.6620    2.2067    0.2783 C.2       1 <0>         0.1040
     34 N4         15.6349    3.1231   -0.0149 N.pl3     1 <0>        -0.5845
     35 H2         16.4125    2.9523   -0.5689 H         1 <0>         0.4265
     36 C28        15.3455    4.3239    0.5936 C.ar      1 <0>         0.0987
     37 C29        14.1364    4.1540    1.2929 C.ar      1 <0>        -0.1171
     38 C30        13.5898    5.2207    2.0085 C.ar      1 <0>        -0.1142
     39 C31        14.2311    6.4274    2.0230 C.ar      1 <0>        -0.1189
     40 C32        15.4218    6.6013    1.3314 C.ar      1 <0>        -0.0931
     41 C33        15.9837    5.5593    0.6263 C.ar      1 <0>        -0.1109
     42 N5         11.0090    3.8129    0.7057 N.4       1 <0>        -0.6363
     43 H3          1.0039    1.9031    0.0027 H         1 <0>         0.0599
     44 H4         -0.5459    1.8868   -0.8726 H         1 <0>         0.0535
     45 H5         -0.5289    1.8773    0.9072 H         1 <0>         0.0672
     46 H6          0.2319   -0.1594    2.1383 H         1 <0>         0.0678
     47 H7          0.7568   -1.6008    1.2356 H         1 <0>         0.0627
     48 H8          1.7647   -0.1336    1.2338 H         1 <0>         0.0634
     49 H9         -1.9605   -0.1726   -0.8702 H         1 <0>         0.0952
     50 H10        -1.4185   -1.6235    0.0069 H         1 <0>         0.0799
     51 H11        -1.5633   -1.7305    2.4609 H         1 <0>         0.1336
     52 H12        -2.7519   -0.8617    4.4640 H         1 <0>         0.1354
     53 H13        -3.9560    1.2815    4.3137 H         1 <0>         0.1554
     54 H14        -2.8611    1.7383    0.3365 H         1 <0>         0.1507
     55 H15         0.7602   -1.5866   -1.2691 H         1 <0>         0.1298
     56 H16         3.1664   -0.5896    0.3814 H         1 <0>         0.1394
     57 H17         5.3370    1.9447   -2.3062 H         1 <0>         0.1330
     58 H18         3.3634    2.0990   -3.7537 H         1 <0>         0.1340
     59 H19         0.7213    1.2346   -3.9955 H         1 <0>         0.4171
     60 H20         6.8195    1.8439   -1.2236 H         1 <0>         0.1480
     61 H21         8.5731    0.2566    2.3396 H         1 <0>         0.1577
     62 H22         4.6351   -0.6992    1.4514 H         1 <0>         0.1655
     63 H23         9.7854    1.9599    2.1512 H         1 <0>         0.0921
     64 H24        10.3408    0.5335    1.2427 H         1 <0>         0.1140
     65 H25        12.2819    2.4783    2.6081 H         1 <0>         0.0999
     66 H26        12.6646    1.0161    1.6680 H         1 <0>         0.1218
     67 H27        14.6463    1.1854   -0.0726 H         1 <0>         0.1791
     68 H28        12.6632    5.0929    2.5484 H         1 <0>         0.1149
     69 H29        13.8078    7.2524    2.5767 H         1 <0>         0.1312
     70 H30        15.9165    7.5611    1.3518 H         1 <0>         0.1353
     71 H31        16.9100    5.7049    0.0904 H         1 <0>         0.1294
     72 H32        10.7780    4.0964    1.6461 H         1 <0>         0.4300
     73 H33        11.8148    4.3297    0.3870 H         1 <0>         0.4382
     74 H34        10.2269    3.9999    0.0964 H         1 <0>         0.4391
@<TRIPOS>BOND
     1    1    2 1
     2    1   43 1
     3    1   44 1
     4    1   45 1
     5    2    3 1
     6    2    4 1
     7    2   11 1
     8    3   46 1
     9    3   47 1
    10    3   48 1
    11    4    5 1
    12    4   49 1
    13    4   50 1
    14    5   10 ar
    15    5    6 ar
    16    6    7 ar
    17    6   51 1
    18    7    8 ar
    19    7   52 1
    20    8    9 ar
    21    8   53 1
    22    9   10 ar
    23   10   54 1
    24   11   19 1
    25   11   12 1
    26   11   55 1
    27   12   17 ar
    28   12   13 ar
    29   13   14 ar
    30   13   56 1
    31   14   15 ar
    32   14   21 1
    33   15   16 ar
    34   15   57 1
    35   16   17 ar
    36   16   58 1
    37   17   18 1
    38   18   19 am
    39   18   59 1
    40   19   20 2
    41   21   26 ar
    42   21   22 ar
    43   22   23 ar
    44   22   60 1
    45   23   24 ar
    46   23   27 1
    47   24   25 ar
    48   24   61 1
    49   25   26 ar
    50   26   62 1
    51   27   28 1
    52   28   29 1
    53   28   63 1
    54   28   64 1
    55   29   30 1
    56   29   31 1
    57   29   42 1
    58   31   32 1
    59   31   65 1
    60   31   66 1
    61   32   37 1
    62   32   33 2
    63   33   34 1
    64   33   67 1
    65   34   35 1
    66   34   36 1
    67   36   41 ar
    68   36   37 ar
    69   37   38 ar
    70   38   39 ar
    71   38   68 1
    72   39   40 ar
    73   39   69 1
    74   40   41 ar
    75   40   70 1
    76   41   71 1
    77   42   72 1
    78   42   73 1
    79   42   74 1
@<TRIPOS>MOLECULE
CHEMBL211690
   74    79     0     0     0
SMALL
USER_CHARGES

@<TRIPOS>ATOM
      1 C1         -0.0187    1.5258    0.0104 C.3       1 <0>        -0.1542
      2 C2          0.0021   -0.0041    0.0020 C.3       1 <0>        -0.0305
      3 C3          0.7421   -0.5109    1.2415 C.3       1 <0>        -0.1488
      4 C4         -1.4333   -0.5336    0.0129 C.3       1 <0>        -0.0801
      5 C5         -2.1387   -0.0476    1.2528 C.ar      1 <0>        -0.1266
      6 C6         -2.0984   -0.7933    2.4213 C.ar      1 <0>        -0.0719
      7 C7         -2.7619   -0.3072    3.5373 C.ar      1 <0>        -0.1701
      8 C8         -3.4366    0.8959    3.4488 C.ar      1 <0>         0.0940
      9 N1         -3.4539    1.5781    2.3206 N.ar      1 <0>        -0.4823
     10 C9         -2.8290    1.1493    1.2412 C.ar      1 <0>         0.1013
     11 C10         0.7182   -0.4975   -1.2568 C.3       1 <0>        -0.0750
     12 C11         2.1673   -0.0674   -1.2448 C.ar      1 <0>        -0.1245
     13 C12         2.7744    1.1656   -1.2297 C.ar      1 <0>        -0.0453
     14 C13         4.1666    1.2533   -1.2218 C.ar      1 <0>        -0.0829
     15 C14         4.9296    0.0866   -1.2293 C.ar      1 <0>        -0.0639
     16 C15         4.3138   -1.1447   -1.2445 C.ar      1 <0>        -0.1371
     17 C16         2.9217   -1.2352   -1.2524 C.ar      1 <0>         0.1658
     18 N2          2.0834   -2.3499   -1.2680 N.am      1 <0>        -0.6606
     19 C17         0.7837   -2.0098   -1.2715 C.2       1 <0>         0.5341
     20 O1         -0.1601   -2.7716   -1.2841 O.2       1 <0>        -0.4823
     21 C18         4.8310    2.5797   -1.2059 C.ar      1 <0>        -0.0340
     22 C19         6.2247    2.6749   -1.2038 C.ar      1 <0>        -0.0986
     23 C20         6.7976    3.9399   -1.1887 C.ar      1 <0>         0.0702
     24 C21         5.9724    5.0564   -1.1763 C.ar      1 <0>         0.0197
     25 N3          4.6601    4.9297   -1.1784 N.ar      1 <0>        -0.4368
     26 C22         4.0744    3.7499   -1.1988 C.ar      1 <0>         0.0844
     27 O2          8.1492    4.0832   -1.1855 O.3       1 <0>        -0.3227
     28 C23         8.6600    5.4177   -1.1697 C.3       1 <0>         0.0263
     29 C24        10.1895    5.3783   -1.1684 C.3       1 <0>         0.0435
     30 H1         10.5366    4.7701   -0.3331 H         1 <0>         0.1528
     31 C25        10.7362    6.8001   -1.0258 C.3       1 <0>        -0.0556
     32 C26        12.2373    6.7510   -0.9012 C.2       1 <0>        -0.2376
     33 C27        12.9438    6.7408    0.2401 C.2       1 <0>         0.1040
     34 N4         14.2823    6.6924   -0.0401 N.pl3     1 <0>        -0.5845
     35 H2         14.9902    6.6764    0.6229 H         1 <0>         0.4266
     36 C28        14.4746    6.6697   -1.4033 C.ar      1 <0>         0.0988
     37 C29        13.2018    6.6990   -2.0025 C.ar      1 <0>        -0.1171
     38 C30        13.0862    6.6792   -3.3935 C.ar      1 <0>        -0.1141
     39 C31        14.2115    6.6278   -4.1671 C.ar      1 <0>        -0.1190
     40 C32        15.4691    6.5945   -3.5809 C.ar      1 <0>        -0.0931
     41 C33        15.6065    6.6226   -2.2101 C.ar      1 <0>        -0.1110
     42 N5         10.6653    4.7949   -2.4299 N.4       1 <0>        -0.6363
     43 H3          1.0039    1.9031    0.0027 H         1 <0>         0.0636
     44 H4         -0.5459    1.8868   -0.8726 H         1 <0>         0.0643
     45 H5         -0.5289    1.8773    0.9072 H         1 <0>         0.0679
     46 H6          0.2319   -0.1594    2.1383 H         1 <0>         0.0673
     47 H7          0.7568   -1.6008    1.2356 H         1 <0>         0.0520
     48 H8          1.7647   -0.1336    1.2338 H         1 <0>         0.0598
     49 H9         -1.9605   -0.1726   -0.8702 H         1 <0>         0.0813
     50 H10        -1.4185   -1.6235    0.0069 H         1 <0>         0.0940
     51 H11        -1.5633   -1.7305    2.4609 H         1 <0>         0.1311
     52 H12        -2.7519   -0.8617    4.4640 H         1 <0>         0.1349
     53 H13        -3.9560    1.2815    4.3137 H         1 <0>         0.1555
     54 H14        -2.8611    1.7383    0.3365 H         1 <0>         0.1531
     55 H15         0.2154   -0.1282   -2.1506 H         1 <0>         0.1305
     56 H16         2.1752    2.0642   -1.2242 H         1 <0>         0.1399
     57 H17         6.0078    0.1488   -1.2236 H         1 <0>         0.1329
     58 H18         4.9111   -2.0445   -1.2506 H         1 <0>         0.1338
     59 H19         2.4024   -3.2659   -1.2757 H         1 <0>         0.4168
     60 H20         6.8407    1.7878   -1.2132 H         1 <0>         0.1479
     61 H21         6.4119    6.0429   -1.1646 H         1 <0>         0.1577
     62 H22         2.9961    3.6888   -1.2048 H         1 <0>         0.1659
     63 H23         8.3110    5.9509   -2.0540 H         1 <0>         0.0922
     64 H24         8.3091    5.9305   -0.2742 H         1 <0>         0.1140
     65 H25        10.4635    7.3841   -1.9049 H         1 <0>         0.0999
     66 H26        10.3127    7.2646   -0.1354 H         1 <0>         0.1218
     67 H27        12.5188    6.7672    1.2326 H         1 <0>         0.1791
     68 H28        12.1108    6.7042   -3.8566 H         1 <0>         0.1149
     69 H29        14.1216    6.6125   -5.2433 H         1 <0>         0.1312
     70 H30        16.3491    6.5532   -4.2056 H         1 <0>         0.1353
     71 H31        16.5895    6.5951   -1.7635 H         1 <0>         0.1294
     72 H32        10.3440    5.3579   -3.2031 H         1 <0>         0.4300
     73 H33        11.6740    4.7689   -2.4291 H         1 <0>         0.4381
     74 H34        10.3048    3.8572   -2.5239 H         1 <0>         0.4391
@<TRIPOS>BOND
     1    1    2 1
     2    1   43 1
     3    1   44 1
     4    1   45 1
     5    2    3 1
     6    2    4 1
     7    2   11 1
     8    3   46 1
     9    3   47 1
    10    3   48 1
    11    4    5 1
    12    4   49 1
    13    4   50 1
    14    5   10 ar
    15    5    6 ar
    16    6    7 ar
    17    6   51 1
    18    7    8 ar
    19    7   52 1
    20    8    9 ar
    21    8   53 1
    22    9   10 ar
    23   10   54 1
    24   11   19 1
    25   11   12 1
    26   11   55 1
    27   12   17 ar
    28   12   13 ar
    29   13   14 ar
    30   13   56 1
    31   14   15 ar
    32   14   21 1
    33   15   16 ar
    34   15   57 1
    35   16   17 ar
    36   16   58 1
    37   17   18 1
    38   18   19 am
    39   18   59 1
    40   19   20 2
    41   21   26 ar
    42   21   22 ar
    43   22   23 ar
    44   22   60 1
    45   23   24 ar
    46   23   27 1
    47   24   25 ar
    48   24   61 1
    49   25   26 ar
    50   26   62 1
    51   27   28 1
    52   28   29 1
    53   28   63 1
    54   28   64 1
    55   29   30 1
    56   29   31 1
    57   29   42 1
    58   31   32 1
    59   31   65 1
    60   31   66 1
    61   32   37 1
    62   32   33 2
    63   33   34 1
    64   33   67 1
    65   34   35 1
    66   34   36 1
    67   36   41 ar
    68   36   37 ar
    69   37   38 ar
    70   38   39 ar
    71   38   68 1
    72   39   40 ar
    73   39   69 1
    74   40   41 ar
    75   40   70 1
    76   41   71 1
    77   42   72 1
    78   42   73 1
    79   42   74 1
@<TRIPOS>MOLECULE
CHEMBL573394
   52    56     0     0     0
SMALL
USER_CHARGES

@<TRIPOS>ATOM
      1 C1         -0.0165    1.3620    0.0095 C.ar      1 <0>        -0.1188
      2 C2          1.1697    2.0834    0.0021 C.ar      1 <0>        -0.0930
      3 C3          2.3856    1.4362   -0.0134 C.ar      1 <0>        -0.1108
      4 C4          2.4281    0.0456   -0.0212 C.ar      1 <0>         0.0986
      5 C5          1.2234   -0.6807   -0.0132 C.ar      1 <0>        -0.1172
      6 C6          0.0021   -0.0041    0.0020 C.ar      1 <0>        -0.1144
      7 C7          1.6036   -2.0953   -0.0245 C.2       1 <0>        -0.2384
      8 C8          2.9451   -2.1410   -0.0380 C.2       1 <0>         0.1044
      9 N1          3.4551   -0.8713   -0.0363 N.pl3     1 <0>        -0.5842
     10 H1          4.3995   -0.6501   -0.0442 H         1 <0>         0.4267
     11 C9          0.6664   -3.2754   -0.0210 C.3       1 <0>        -0.0553
     12 C10         0.2361   -3.5891   -1.4554 C.3       1 <0>         0.0434
     13 H2          1.1200   -3.7379   -2.0756 H         1 <0>         0.1533
     14 C11        -0.6144   -4.8610   -1.4661 C.3       1 <0>         0.0258
     15 O1         -0.9189   -5.2190   -2.8156 O.3       1 <0>        -0.3215
     16 C12        -1.6731   -6.3340   -3.0030 C.ar      1 <0>         0.0693
     17 C13        -2.0064   -6.7503   -4.2858 C.ar      1 <0>        -0.0890
     18 C14        -2.7834   -7.9023   -4.4264 C.ar      1 <0>        -0.0520
     19 C15        -3.1917   -8.5853   -3.2820 C.ar      1 <0>         0.0920
     20 N2         -2.8524   -8.1545   -2.0845 N.ar      1 <0>        -0.4382
     21 C16        -2.1151   -7.0742   -1.9153 C.ar      1 <0>         0.0278
     22 C17        -3.1687   -8.3912   -5.7730 C.ar      1 <0>        -0.0310
     23 C18        -2.7440   -7.6936   -6.9156 C.ar      1 <0>        -0.0947
     24 C19        -3.0811   -8.1183   -8.1609 C.ar      1 <0>        -0.0624
     25 C20        -3.8672   -9.2730   -8.3195 C.ar      1 <0>         0.0638
     26 C21        -4.3006   -9.9841   -7.1695 C.ar      1 <0>        -0.0668
     27 C22        -3.9386   -9.5339   -5.8940 C.ar      1 <0>        -0.0788
     28 C23        -5.0863  -11.1374   -7.3600 C.ar      1 <0>        -0.0866
     29 C24        -5.3800  -11.4961   -8.6457 C.ar      1 <0>         0.0186
     30 N3         -4.9357  -10.7773   -9.6676 N.ar      1 <0>        -0.2121
     31 N4         -4.2180   -9.7211   -9.5279 N.ar      1 <0>        -0.1992
     32 N5         -0.5518   -2.4687   -1.9863 N.4       1 <0>        -0.6363
     33 H3         -0.9613    1.8849    0.0259 H         1 <0>         0.1313
     34 H4          1.1388    3.1630    0.0081 H         1 <0>         0.1355
     35 H5          3.3028    2.0064   -0.0198 H         1 <0>         0.1296
     36 H6         -0.9246   -0.5587    0.0082 H         1 <0>         0.1147
     37 H7          3.5346   -3.0459   -0.0490 H         1 <0>         0.1791
     38 H8          1.1742   -4.1414    0.4036 H         1 <0>         0.1218
     39 H9         -0.2127   -3.0396    0.5787 H         1 <0>         0.0999
     40 H10        -0.0618   -5.6715   -0.9910 H         1 <0>         0.1145
     41 H11        -1.5405   -4.6834   -0.9195 H         1 <0>         0.0926
     42 H12        -1.6736   -6.1972   -5.1517 H         1 <0>         0.1512
     43 H13        -3.7932   -9.4771   -3.3782 H         1 <0>         0.1679
     44 H14        -1.8553   -6.7584   -0.9157 H         1 <0>         0.1604
     45 H15        -2.1402   -6.8053   -6.8022 H         1 <0>         0.1378
     46 H16        -2.7460   -7.5692   -9.0284 H         1 <0>         0.1503
     47 H17        -4.2602  -10.0711   -5.0139 H         1 <0>         0.1449
     48 H18        -5.4431  -11.7169   -6.5214 H         1 <0>         0.1591
     49 H19        -5.9801  -12.3746   -8.8314 H         1 <0>         0.1788
     50 H20        -1.3700   -2.3311   -1.4122 H         1 <0>         0.4300
     51 H21         0.0090   -1.6300   -1.9793 H         1 <0>         0.4385
     52 H22        -0.8356   -2.6756   -2.9322 H         1 <0>         0.4391
@<TRIPOS>BOND
     1    1    6 ar
     2    1    2 ar
     3    1   33 1
     4    2    3 ar
     5    2   34 1
     6    3    4 ar
     7    3   35 1
     8    4    9 1
     9    4    5 ar
    10    5    6 ar
    11    5    7 1
    12    6   36 1
    13    7    8 2
    14    7   11 1
    15    8    9 1
    16    8   37 1
    17    9   10 1
    18   11   12 1
    19   11   38 1
    20   11   39 1
    21   12   13 1
    22   12   14 1
    23   12   32 1
    24   14   15 1
    25   14   40 1
    26   14   41 1
    27   15   16 1
    28   16   21 ar
    29   16   17 ar
    30   17   18 ar
    31   17   42 1
    32   18   19 ar
    33   18   22 1
    34   19   20 ar
    35   19   43 1
    36   20   21 ar
    37   21   44 1
    38   22   27 ar
    39   22   23 ar
    40   23   24 ar
    41   23   45 1
    42   24   25 ar
    43   24   46 1
    44   25   31 ar
    45   25   26 ar
    46   26   27 ar
    47   26   28 ar
    48   27   47 1
    49   28   29 ar
    50   28   48 1
    51   29   30 ar
    52   29   49 1
    53   30   31 ar
    54   32   50 1
    55   32   51 1
    56   32   52 1
@<TRIPOS>MOLECULE
CHEMBL517163
   67    72     0     0     0
SMALL
USER_CHARGES

@<TRIPOS>ATOM
      1 C1         -0.0187    1.6661   -0.0327 C.3       1 <0>        -0.0604
      2 N1         -0.0412    0.1973   -0.0415 N.4       1 <0>        -0.3727
      3 C2         -1.4335   -0.2711   -0.0399 C.3       1 <0>        -0.0472
      4 C3          0.6399   -0.2957   -1.2461 C.3       1 <0>        -0.0274
      5 C4          2.0981    0.0804   -1.1880 C.2       1 <0>         0.5013
      6 O1          2.5277    0.6982   -0.2368 O.2       1 <0>        -0.5076
      7 N2          2.9249   -0.2699   -2.1931 N.am      1 <0>        -0.5219
      8 C5          2.5230   -1.0088   -3.3929 C.3       1 <0>         0.0904
      9 C6          3.8077   -1.1593   -4.2235 C.3       1 <0>        -0.0869
     10 C7          4.8756   -0.4708   -3.4030 C.ar      1 <0>        -0.1048
     11 C8          4.2931    0.0241   -2.2470 C.ar      1 <0>         0.0984
     12 C9          5.0848    0.7111   -1.3260 C.ar      1 <0>        -0.0956
     13 C10         6.4346    0.8985   -1.5683 C.ar      1 <0>         0.1719
     14 C11         7.0092    0.4001   -2.7354 C.ar      1 <0>         0.0981
     15 C12         6.2252   -0.2894   -3.6449 C.ar      1 <0>        -0.1497
     16 O2          8.3358    0.5827   -2.9764 O.3       1 <0>        -0.3129
     17 C13         8.8541    0.0436   -4.1941 C.3       1 <0>         0.0268
     18 N3          7.2231    1.5889   -0.6395 N.pl3     1 <0>        -0.6224
     19 C14         6.8461    1.6320    0.6933 C.ar      1 <0>         0.6142
     20 N4          5.8093    0.9101    1.0847 N.ar      1 <0>        -0.5949
     21 C15         5.4142    0.9231    2.3566 C.ar      1 <0>         0.3847
     22 C16         6.1224    1.7205    3.2746 C.ar      1 <0>        -0.2889
     23 C17         5.4671    1.5335    4.5685 C.2       1 <0>        -0.1468
     24 C18         4.4520    0.6776    4.3698 C.2       1 <0>         0.0271
     25 N5          4.4099    0.3049    3.0496 N.pl3     1 <0>        -0.5689
     26 H1          3.7629   -0.3066    2.6645 H         1 <0>         0.4162
     27 C19         7.2163    2.4703    2.8154 C.ar      1 <0>         0.5157
     28 N6          7.5424    2.3919    1.5294 N.ar      1 <0>        -0.6110
     29 N7          7.9422    3.2688    3.6831 N.pl3     1 <0>        -0.6275
     30 C20         8.9454    4.0965    3.1915 C.ar      1 <0>         0.2361
     31 C21         8.9092    4.5305    1.8721 C.ar      1 <0>        -0.1395
     32 C22         9.9042    5.3519    1.3833 C.ar      1 <0>        -0.0612
     33 C23        10.9488    5.7515    2.2042 C.ar      1 <0>        -0.1250
     34 C24        10.9992    5.3311    3.5111 C.ar      1 <0>        -0.0572
     35 C25         9.9973    4.5032    4.0267 C.ar      1 <0>        -0.2086
     36 C26        10.3080    4.2245    5.4376 C.2       1 <0>         0.5667
     37 O3          9.6341    3.5287    6.1726 O.2       1 <0>        -0.5363
     38 N8         11.4430    4.8477    5.7985 N.am      1 <0>        -0.7219
     39 C27        11.9711    5.5752    4.6386 C.3       1 <0>         0.1385
     40 H2          1.0144    2.0136   -0.0339 H         1 <0>         0.1396
     41 H3         -0.5297    2.0426   -0.9188 H         1 <0>         0.1201
     42 H4         -0.5241    2.0319    0.8611 H         1 <0>         0.1273
     43 H5         -1.9445    0.1054   -0.9260 H         1 <0>         0.1250
     44 H6         -1.4502   -1.3610   -0.0465 H         1 <0>         0.1255
     45 H7         -1.9389    0.0946    0.8539 H         1 <0>         0.1306
     46 H8          0.5462   -1.3804   -1.2982 H         1 <0>         0.1606
     47 H9          0.1843    0.1513   -2.1297 H         1 <0>         0.1603
     48 H10         2.1322   -1.9891   -3.1200 H         1 <0>         0.0924
     49 H11         1.7756   -0.4451   -3.9514 H         1 <0>         0.0923
     50 H12         4.0521   -2.2130   -4.3580 H         1 <0>         0.0994
     51 H13         3.6952   -0.6680   -5.1899 H         1 <0>         0.0999
     52 H14         4.6423    1.0987   -0.4203 H         1 <0>         0.1824
     53 H15         6.6663   -0.6762   -4.5516 H         1 <0>         0.1415
     54 H16         8.6996   -1.0353   -4.2086 H         1 <0>         0.0584
     55 H17         8.3377    0.4960   -5.0407 H         1 <0>         0.0589
     56 H18         9.9205    0.2588   -4.2618 H         1 <0>         0.1060
     57 H19         8.0332    2.0371   -0.9291 H         1 <0>         0.4326
     58 H20         5.7465    1.9947    5.5042 H         1 <0>         0.1525
     59 H21         3.7711    0.3335    5.1342 H         1 <0>         0.1804
     60 H22         7.7508    3.2506    4.6338 H         1 <0>         0.4340
     61 H23         8.0995    4.2235    1.2267 H         1 <0>         0.1586
     62 H24         9.8699    5.6852    0.3566 H         1 <0>         0.1368
     63 H25        11.7245    6.3943    1.8148 H         1 <0>         0.1339
     64 H26        11.8506    4.8146    6.6782 H         1 <0>         0.4275
     65 H27        12.9596    5.2036    4.3684 H         1 <0>         0.1018
     66 H28        12.0200    6.6397    4.8674 H         1 <0>         0.1004
     67 H29         0.4318   -0.1513    0.7788 H         1 <0>         0.4326
@<TRIPOS>BOND
     1    1    2 1
     2    1   40 1
     3    1   41 1
     4    1   42 1
     5    2    3 1
     6    2    4 1
     7    2   67 1
     8    3   43 1
     9    3   44 1
    10    3   45 1
    11    4    5 1
    12    4   46 1
    13    4   47 1
    14    5    6 2
    15    5    7 am
    16    7   11 1
    17    7    8 1
    18    8    9 1
    19    8   48 1
    20    8   49 1
    21    9   10 1
    22    9   50 1
    23    9   51 1
    24   10   15 ar
    25   10   11 ar
    26   11   12 ar
    27   12   13 ar
    28   12   52 1
    29   13   14 ar
    30   13   18 1
    31   14   15 ar
    32   14   16 1
    33   15   53 1
    34   16   17 1
    35   17   54 1
    36   17   55 1
    37   17   56 1
    38   18   19 1
    39   18   57 1
    40   19   28 ar
    41   19   20 ar
    42   20   21 ar
    43   21   25 1
    44   21   22 ar
    45   22   23 1
    46   22   27 ar
    47   23   24 2
    48   23   58 1
    49   24   25 1
    50   24   59 1
    51   25   26 1
    52   27   28 ar
    53   27   29 1
    54   29   30 1
    55   29   60 1
    56   30   35 ar
    57   30   31 ar
    58   31   32 ar
    59   31   61 1
    60   32   33 ar
    61   32   62 1
    62   33   34 ar
    63   33   63 1
    64   34   39 1
    65   34   35 ar
    66   35   36 1
    67   36   37 2
    68   36   38 am
    69   38   39 1
    70   38   64 1
    71   39   65 1
    72   39   66 1
@<TRIPOS>MOLECULE
CHEMBL403356
   65    70     0     0     0
SMALL
USER_CHARGES

@<TRIPOS>ATOM
      1 C1         -0.0225    1.8097    0.0120 C.3       1 <0>        -0.1490
      2 S1          0.0021   -0.0041    0.0020 S.3       1 <0>         0.0303
      3 C2          0.8484   -0.4107   -1.4889 C.ar      1 <0>         0.3271
      4 N1          1.2837    0.5796   -2.2667 N.ar      1 <0>        -0.5278
      5 C3          1.9229    0.3379   -3.3923 C.ar      1 <0>         0.2399
      6 C4          2.1419   -1.0009   -3.7658 C.ar      1 <0>        -0.2288
      7 C5          2.8151   -1.3392   -4.9495 C.ar      1 <0>         0.0087
      8 C6          2.9869   -2.6849   -5.2387 C.ar      1 <0>        -0.1091
      9 C7          2.4852   -3.6562   -4.3441 C.ar      1 <0>         0.2474
     10 N2          1.8548   -3.3109   -3.2368 N.ar      1 <0>        -0.4557
     11 C8          1.6645   -2.0319   -2.9134 C.ar      1 <0>         0.3665
     12 N3          1.0298   -1.6838   -1.7865 N.ar      1 <0>        -0.4843
     13 C9          2.6699   -5.0924   -4.6553 C.ar      1 <0>        -0.0207
     14 C10         2.6327   -5.5326   -5.9783 C.ar      1 <0>        -0.0764
     15 C11         2.8060   -6.8718   -6.2619 C.ar      1 <0>        -0.1019
     16 C12         3.0157   -7.7773   -5.2372 C.ar      1 <0>        -0.1452
     17 C13         3.0532   -7.3469   -3.9229 C.ar      1 <0>        -0.0967
     18 C14         2.8875   -6.0093   -3.6271 C.ar      1 <0>        -0.0681
     19 C15         3.2037   -9.2386   -5.5539 C.3       1 <0>         0.0427
     20 N4          4.6315   -9.5150   -5.7612 N.4       1 <0>        -0.3839
     21 C16         5.1019   -8.7885   -6.9467 C.3       1 <0>        -0.0125
     22 C17         6.6062   -9.0081   -7.1205 C.3       1 <0>        -0.1369
     23 C18         6.8814  -10.5045   -7.2944 C.3       1 <0>         0.0161
     24 C19         6.3204  -11.2604   -6.0865 C.3       1 <0>        -0.1390
     25 C20         4.8266  -10.9574   -5.9509 C.3       1 <0>        -0.0041
     26 C21         8.3676  -10.7360   -7.3879 C.2       1 <0>         0.0023
     27 N5          9.3222  -10.4691   -6.5200 N.2       1 <0>        -0.2205
     28 N6         10.5343  -10.7286   -6.7529 N.2       1 <0>        -0.3595
     29 C22        10.9233  -11.2884   -7.8908 C.2       1 <0>         0.3556
     30 S2          9.3386  -11.4595   -8.7068 S.3       1 <0>        -0.0342
     31 N7         12.1925  -11.6438   -8.3225 N.pl3     1 <0>        -0.7741
     32 C23         3.6902   -3.1001   -6.4757 C.ar      1 <0>        -0.0498
     33 C24         4.7183   -4.0397   -6.4143 C.ar      1 <0>        -0.0992
     34 C25         5.3692   -4.4227   -7.5693 C.ar      1 <0>        -0.1211
     35 C26         5.0036   -3.8759   -8.7863 C.ar      1 <0>        -0.1088
     36 C27         3.9842   -2.9431   -8.8533 C.ar      1 <0>        -0.1117
     37 C28         3.3223   -2.5567   -7.7057 C.ar      1 <0>        -0.1030
     38 H1          1.0001    2.1870    0.0043 H         1 <0>         0.0933
     39 H2         -0.5497    2.1708   -0.8711 H         1 <0>         0.0933
     40 H3         -0.5327    2.1613    0.9088 H         1 <0>         0.1177
     41 H4          2.2708    1.1489   -4.0150 H         1 <0>         0.1879
     42 H5          3.1879   -0.5750   -5.6154 H         1 <0>         0.1575
     43 H6          2.4684   -4.8268   -6.7790 H         1 <0>         0.1443
     44 H7          2.7774   -7.2139   -7.2859 H         1 <0>         0.1362
     45 H8          3.2169   -8.0585   -3.1272 H         1 <0>         0.1375
     46 H9          2.9213   -5.6738   -2.6011 H         1 <0>         0.1437
     47 H10         2.8338   -9.8407   -4.7239 H         1 <0>         0.1400
     48 H11         2.6501   -9.4884   -6.4590 H         1 <0>         0.1379
     49 H12         4.5773   -9.1553   -7.8289 H         1 <0>         0.1324
     50 H13         4.9024   -7.7241   -6.8228 H         1 <0>         0.1374
     51 H14         6.9532   -8.4693   -8.0023 H         1 <0>         0.1159
     52 H15         7.1319   -8.6413   -6.2389 H         1 <0>         0.1003
     53 H16         6.3980  -10.8607   -8.2040 H         1 <0>         0.1116
     54 H17         6.4630  -12.3316   -6.2291 H         1 <0>         0.1171
     55 H18         6.8401  -10.9404   -5.1834 H         1 <0>         0.1010
     56 H19         4.4239  -11.4942   -5.0920 H         1 <0>         0.1371
     57 H20         4.3079  -11.2780   -6.8544 H         1 <0>         0.1329
     58 H21        12.9608  -11.4862   -7.7516 H         1 <0>         0.4280
     59 H22        12.3119  -12.0500   -9.1952 H         1 <0>         0.4284
     60 H23         5.0050   -4.4667   -5.4647 H         1 <0>         0.1211
     61 H24         6.1658   -5.1505   -7.5230 H         1 <0>         0.1233
     62 H25         5.5163   -4.1781   -9.6875 H         1 <0>         0.1263
     63 H26         3.7033   -2.5193   -9.8062 H         1 <0>         0.1301
     64 H27         2.5236   -1.8318   -7.7599 H         1 <0>         0.1282
     65 H28         5.1529   -9.2096   -4.9532 H         1 <0>         0.4249
@<TRIPOS>BOND
     1    1    2 1
     2    1   38 1
     3    1   39 1
     4    1   40 1
     5    2    3 1
     6    3   12 ar
     7    3    4 ar
     8    4    5 ar
     9    5    6 ar
    10    5   41 1
    11    6   11 ar
    12    6    7 ar
    13    7    8 ar
    14    7   42 1
    15    8    9 ar
    16    8   32 1
    17    9   10 ar
    18    9   13 1
    19   10   11 ar
    20   11   12 ar
    21   13   18 ar
    22   13   14 ar
    23   14   15 ar
    24   14   43 1
    25   15   16 ar
    26   15   44 1
    27   16   17 ar
    28   16   19 1
    29   17   18 ar
    30   17   45 1
    31   18   46 1
    32   19   20 1
    33   19   47 1
    34   19   48 1
    35   20   25 1
    36   20   21 1
    37   20   65 1
    38   21   22 1
    39   21   49 1
    40   21   50 1
    41   22   23 1
    42   22   51 1
    43   22   52 1
    44   23   24 1
    45   23   26 1
    46   23   53 1
    47   24   25 1
    48   24   54 1
    49   24   55 1
    50   25   56 1
    51   25   57 1
    52   26   30 1
    53   26   27 2
    54   27   28 1
    55   28   29 2
    56   29   30 1
    57   29   31 1
    58   31   58 1
    59   31   59 1
    60   32   37 ar
    61   32   33 ar
    62   33   34 ar
    63   33   60 1
    64   34   35 ar
    65   34   61 1
    66   35   36 ar
    67   35   62 1
    68   36   37 ar
    69   36   63 1
    70   37   64 1
@<TRIPOS>MOLECULE
CHEMBL402579
   72    78     0     0     0
SMALL
USER_CHARGES

@<TRIPOS>ATOM
      1 C1          0.2855   -3.2609    1.6121 C.3       1 <0>        -0.0833
      2 C2          0.1336   -2.0727    0.6976 C.2       1 <0>         0.2869
      3 N1          0.1763   -2.1221   -0.6019 N.2       1 <0>        -0.4797
      4 C3          0.0047   -0.8754   -1.1118 C.ar      1 <0>         0.0504
      5 C4         -0.0358   -0.3629   -2.4113 C.ar      1 <0>        -0.0546
      6 C5         -0.2290    0.9748   -2.6096 C.ar      1 <0>        -0.1244
      7 C6         -0.3858    1.8349   -1.5319 C.ar      1 <0>        -0.0911
      8 C7         -0.3493    1.3516   -0.2413 C.ar      1 <0>        -0.1247
      9 C8         -0.1544   -0.0051   -0.0203 C.ar      1 <0>         0.0464
     10 N2         -0.0739   -0.7932    1.1103 N.pl3     1 <0>        -0.4940
     11 C9         -0.1875   -0.3358    2.4974 C.3       1 <0>         0.1359
     12 C10        -1.5530    0.3243    2.7088 C.3       1 <0>        -0.1621
     13 C11        -1.6342    0.8700    4.1361 C.3       1 <0>        -0.0014
     14 N3         -0.5722    1.8612    4.3459 N.4       1 <0>        -0.3850
     15 C12         0.7413    1.2191    4.2155 C.3       1 <0>        -0.0089
     16 C13         0.9139    0.6868    2.7913 C.3       1 <0>        -0.1609
     17 C14        -0.7020    2.4386    5.6904 C.3       1 <0>         0.0431
     18 C15         0.3098    3.5421    5.8631 C.ar      1 <0>        -0.1486
     19 C16         1.5696    3.2508    6.3548 C.ar      1 <0>        -0.1029
     20 C17         2.5003    4.2568    6.5152 C.ar      1 <0>        -0.0695
     21 C18         2.1687    5.5695    6.1804 C.ar      1 <0>        -0.0161
     22 C19         0.8970    5.8568    5.6852 C.ar      1 <0>        -0.0760
     23 C20        -0.0232    4.8413    5.5240 C.ar      1 <0>        -0.0966
     24 C21         3.1631    6.6542    6.3506 C.ar      1 <0>         0.2410
     25 C22         3.1851    7.7229    5.4283 C.ar      1 <0>        -0.1172
     26 C23         4.1167    8.7398    5.5872 C.ar      1 <0>         0.0049
     27 C24         5.0019    8.6563    6.6690 C.ar      1 <0>        -0.2483
     28 C25         5.9846    9.6463    6.9109 C.ar      1 <0>         0.4948
     29 N4          6.7846    9.4922    7.9588 N.ar      1 <0>        -0.5947
     30 C26         6.6744    8.4460    8.7605 C.ar      1 <0>         0.3859
     31 N5          5.7831    7.4993    8.5842 N.ar      1 <0>        -0.5458
     32 C27         4.9223    7.5533    7.5560 C.ar      1 <0>         0.3813
     33 N6          4.0070    6.6044    7.3648 N.ar      1 <0>        -0.4570
     34 N7          6.1074   10.7394    6.0813 N.pl3     1 <0>        -0.8100
     35 C28         2.2232    7.7585    4.3010 C.ar      1 <0>        -0.0474
     36 C29         2.0560    6.6382    3.4881 C.ar      1 <0>        -0.1008
     37 C30         1.1591    6.6773    2.4401 C.ar      1 <0>        -0.1193
     38 C31         0.4267    7.8250    2.1954 C.ar      1 <0>        -0.1099
     39 C32         0.5886    8.9398    2.9983 C.ar      1 <0>        -0.1108
     40 C33         1.4781    8.9104    4.0530 C.ar      1 <0>        -0.1060
     41 H1         -0.7000   -3.6449    1.8756 H         1 <0>         0.0911
     42 H2          0.8551   -4.0394    1.1047 H         1 <0>         0.1035
     43 H3          0.8113   -2.9576    2.5175 H         1 <0>         0.0783
     44 H4          0.0858   -1.0232   -3.2572 H         1 <0>         0.1344
     45 H5         -0.2597    1.3670   -3.6154 H         1 <0>         0.1350
     46 H6         -0.5370    2.8901   -1.7054 H         1 <0>         0.1327
     47 H7         -0.4722    2.0252    0.5939 H         1 <0>         0.1117
     48 H8         -0.0843   -1.1864    3.1713 H         1 <0>         0.1201
     49 H9         -1.6757    1.1423    1.9988 H         1 <0>         0.0979
     50 H10        -2.3413   -0.4128    2.5556 H         1 <0>         0.1218
     51 H11        -2.6053    1.3405    4.2900 H         1 <0>         0.1404
     52 H12        -1.5117    0.0513    4.8451 H         1 <0>         0.1360
     53 H13         1.5240    1.9474    4.4281 H         1 <0>         0.1410
     54 H14         0.8132    0.3929    4.9229 H         1 <0>         0.1355
     55 H15         1.8890    0.2089    2.6970 H         1 <0>         0.1205
     56 H16         0.8424    1.5123    2.0830 H         1 <0>         0.0974
     57 H17        -1.7061    2.8433    5.8167 H         1 <0>         0.1407
     58 H18        -0.5259    1.6641    6.4370 H         1 <0>         0.1395
     59 H19         1.8252    2.2340    6.6141 H         1 <0>         0.1364
     60 H20         3.4834    4.0283    6.8995 H         1 <0>         0.1446
     61 H21         0.6344    6.8714    5.4245 H         1 <0>         0.1442
     62 H22        -1.0067    5.0618    5.1361 H         1 <0>         0.1356
     63 H23         4.1576    9.5698    4.8974 H         1 <0>         0.1457
     64 H24         7.3500    8.3670    9.5994 H         1 <0>         0.2089
     65 H25         5.5159   10.8386    5.3189 H         1 <0>         0.4141
     66 H26         6.7855   11.4098    6.2595 H         1 <0>         0.4207
     67 H27         2.6276    5.7418    3.6781 H         1 <0>         0.1198
     68 H28         1.0290    5.8102    1.8095 H         1 <0>         0.1225
     69 H29        -0.2741    7.8509    1.3740 H         1 <0>         0.1266
     70 H30         0.0144    9.8332    2.8023 H         1 <0>         0.1302
     71 H31         1.6002    9.7796    4.6822 H         1 <0>         0.1268
     72 H32        -0.6569    2.5943    3.6577 H         1 <0>         0.4228
@<TRIPOS>BOND
     1    1    2 1
     2    1   41 1
     3    1   42 1
     4    1   43 1
     5    2   10 1
     6    2    3 2
     7    3    4 1
     8    4    9 ar
     9    4    5 ar
    10    5    6 ar
    11    5   44 1
    12    6    7 ar
    13    6   45 1
    14    7    8 ar
    15    7   46 1
    16    8    9 ar
    17    8   47 1
    18    9   10 1
    19   10   11 1
    20   11   16 1
    21   11   12 1
    22   11   48 1
    23   12   13 1
    24   12   49 1
    25   12   50 1
    26   13   14 1
    27   13   51 1
    28   13   52 1
    29   14   15 1
    30   14   17 1
    31   14   72 1
    32   15   16 1
    33   15   53 1
    34   15   54 1
    35   16   55 1
    36   16   56 1
    37   17   18 1
    38   17   57 1
    39   17   58 1
    40   18   23 ar
    41   18   19 ar
    42   19   20 ar
    43   19   59 1
    44   20   21 ar
    45   20   60 1
    46   21   22 ar
    47   21   24 1
    48   22   23 ar
    49   22   61 1
    50   23   62 1
    51   24   33 ar
    52   24   25 ar
    53   25   26 ar
    54   25   35 1
    55   26   27 ar
    56   26   63 1
    57   27   32 ar
    58   27   28 ar
    59   28   29 ar
    60   28   34 1
    61   29   30 ar
    62   30   31 ar
    63   30   64 1
    64   31   32 ar
    65   32   33 ar
    66   34   65 1
    67   34   66 1
    68   35   40 ar
    69   35   36 ar
    70   36   37 ar
    71   36   67 1
    72   37   38 ar
    73   37   68 1
    74   38   39 ar
    75   38   69 1
    76   39   40 ar
    77   39   70 1
    78   40   71 1
@<TRIPOS>MOLECULE
CHEMBL402579
   73    79     0     0     0
SMALL
USER_CHARGES

@<TRIPOS>ATOM
      1 C1          0.2857   -3.2608    1.6121 C.3       1 <0>        -0.1284
      2 C2          0.1337   -2.0727    0.6976 C.cat     1 <0>         0.4038
      3 N1          0.1764   -2.1221   -0.6018 N.pl3     1 <0>        -0.4831
      4 C3          0.0047   -0.8754   -1.1119 C.ar      1 <0>         0.0460
      5 C4         -0.0359   -0.3629   -2.4113 C.ar      1 <0>        -0.0648
      6 C5         -0.2292    0.9747   -2.6096 C.ar      1 <0>        -0.0772
      7 C6         -0.3860    1.8348   -1.5319 C.ar      1 <0>        -0.0542
      8 C7         -0.3496    1.3516   -0.2413 C.ar      1 <0>        -0.1054
      9 C8         -0.1545   -0.0051   -0.0203 C.ar      1 <0>         0.0764
     10 N2         -0.0739   -0.7932    1.1103 N.pl3     1 <0>        -0.4397
     11 C9         -0.1875   -0.3358    2.4974 C.3       1 <0>         0.1229
     12 C10        -1.5530    0.3243    2.7088 C.3       1 <0>        -0.1639
     13 C11        -1.6342    0.8700    4.1361 C.3       1 <0>        -0.0025
     14 N3         -0.5722    1.8612    4.3459 N.4       1 <0>        -0.3877
     15 C12         0.7413    1.2191    4.2155 C.3       1 <0>        -0.0106
     16 C13         0.9139    0.6868    2.7913 C.3       1 <0>        -0.1632
     17 C14        -0.7020    2.4386    5.6904 C.3       1 <0>         0.0439
     18 C15         0.3098    3.5421    5.8631 C.ar      1 <0>        -0.1569
     19 C16         1.5696    3.2508    6.3548 C.ar      1 <0>        -0.1039
     20 C17         2.5003    4.2568    6.5152 C.ar      1 <0>        -0.0702
     21 C18         2.1687    5.5695    6.1804 C.ar      1 <0>        -0.0078
     22 C19         0.8970    5.8568    5.6852 C.ar      1 <0>        -0.0754
     23 C20        -0.0232    4.8413    5.5240 C.ar      1 <0>        -0.0951
     24 C21         3.1631    6.6542    6.3506 C.ar      1 <0>         0.2356
     25 C22         3.1851    7.7229    5.4283 C.ar      1 <0>        -0.1222
     26 C23         4.1167    8.7398    5.5872 C.ar      1 <0>         0.0081
     27 C24         5.0019    8.6563    6.6690 C.ar      1 <0>        -0.2478
     28 C25         5.9846    9.6463    6.9109 C.ar      1 <0>         0.4954
     29 N4          6.7846    9.4922    7.9588 N.ar      1 <0>        -0.5923
     30 C26         6.6744    8.4460    8.7605 C.ar      1 <0>         0.3897
     31 N5          5.7831    7.4993    8.5842 N.ar      1 <0>        -0.5466
     32 C27         4.9223    7.5533    7.5560 C.ar      1 <0>         0.3824
     33 N6          4.0070    6.6044    7.3648 N.ar      1 <0>        -0.4558
     34 N7          6.1074   10.7394    6.0813 N.pl3     1 <0>        -0.8084
     35 C28         2.2232    7.7585    4.3010 C.ar      1 <0>        -0.0442
     36 C29         2.0560    6.6382    3.4881 C.ar      1 <0>        -0.1036
     37 C30         1.1591    6.6773    2.4401 C.ar      1 <0>        -0.1222
     38 C31         0.4267    7.8250    2.1954 C.ar      1 <0>        -0.1115
     39 C32         0.5886    8.9398    2.9983 C.ar      1 <0>        -0.1083
     40 C33         1.4781    8.9104    4.0530 C.ar      1 <0>        -0.1041
     41 H1         -0.6997   -3.6450    1.8756 H         1 <0>         0.1338
     42 H2          0.8554   -4.0394    1.1047 H         1 <0>         0.1288
     43 H3          0.8115   -2.9575    2.5175 H         1 <0>         0.1212
     44 H4          0.0857   -1.0232   -3.2572 H         1 <0>         0.1578
     45 H5         -0.2600    1.3670   -3.6154 H         1 <0>         0.1618
     46 H6         -0.5373    2.8900   -1.7054 H         1 <0>         0.1596
     47 H7         -0.4725    2.0252    0.5939 H         1 <0>         0.1410
     48 H8         -0.0843   -1.1864    3.1713 H         1 <0>         0.1423
     49 H9         -1.6757    1.1423    1.9988 H         1 <0>         0.1037
     50 H10        -2.3413   -0.4128    2.5556 H         1 <0>         0.1298
     51 H11        -2.6053    1.3405    4.2900 H         1 <0>         0.1502
     52 H12        -1.5117    0.0513    4.8451 H         1 <0>         0.1421
     53 H13         1.5240    1.9474    4.4281 H         1 <0>         0.1510
     54 H14         0.8132    0.3929    4.9229 H         1 <0>         0.1417
     55 H15         1.8890    0.2089    2.6970 H         1 <0>         0.1286
     56 H16         0.8424    1.5123    2.0830 H         1 <0>         0.1034
     57 H17        -1.7061    2.8433    5.8167 H         1 <0>         0.1443
     58 H18        -0.5259    1.6641    6.4370 H         1 <0>         0.1421
     59 H19         1.8252    2.2340    6.6141 H         1 <0>         0.1356
     60 H20         3.4834    4.0283    6.8995 H         1 <0>         0.1459
     61 H21         0.6344    6.8714    5.4245 H         1 <0>         0.1455
     62 H22        -1.0067    5.0618    5.1361 H         1 <0>         0.1357
     63 H23         4.1576    9.5698    4.8974 H         1 <0>         0.1463
     64 H24         7.3500    8.3670    9.5994 H         1 <0>         0.2106
     65 H25         5.5159   10.8386    5.3189 H         1 <0>         0.4142
     66 H26         6.7855   11.4098    6.2595 H         1 <0>         0.4222
     67 H27         2.6276    5.7418    3.6781 H         1 <0>         0.1183
     68 H28         1.0290    5.8102    1.8095 H         1 <0>         0.1185
     69 H29        -0.2741    7.8509    1.3740 H         1 <0>         0.1261
     70 H30         0.0144    9.8332    2.8023 H         1 <0>         0.1318
     71 H31         1.6002    9.7796    4.6822 H         1 <0>         0.1287
     72 H32        -0.6569    2.5943    3.6577 H         1 <0>         0.4240
     73 H33         0.3104   -2.9269   -1.1264 H         1 <0>         0.4660
@<TRIPOS>BOND
     1    1    2 1
     2    1   41 1
     3    1   42 1
     4    1   43 1
     5    2   10 1
     6    2    3 2
     7    3    4 1
     8    3   73 1
     9    4    9 ar
    10    4    5 ar
    11    5    6 ar
    12    5   44 1
    13    6    7 ar
    14    6   45 1
    15    7    8 ar
    16    7   46 1
    17    8    9 ar
    18    8   47 1
    19    9   10 1
    20   10   11 1
    21   11   16 1
    22   11   12 1
    23   11   48 1
    24   12   13 1
    25   12   49 1
    26   12   50 1
    27   13   14 1
    28   13   51 1
    29   13   52 1
    30   14   15 1
    31   14   17 1
    32   14   72 1
    33   15   16 1
    34   15   53 1
    35   15   54 1
    36   16   55 1
    37   16   56 1
    38   17   18 1
    39   17   57 1
    40   17   58 1
    41   18   23 ar
    42   18   19 ar
    43   19   20 ar
    44   19   59 1
    45   20   21 ar
    46   20   60 1
    47   21   22 ar
    48   21   24 1
    49   22   23 ar
    50   22   61 1
    51   23   62 1
    52   24   33 ar
    53   24   25 ar
    54   25   26 ar
    55   25   35 1
    56   26   27 ar
    57   26   63 1
    58   27   32 ar
    59   27   28 ar
    60   28   29 ar
    61   28   34 1
    62   29   30 ar
    63   30   31 ar
    64   30   64 1
    65   31   32 ar
    66   32   33 ar
    67   34   65 1
    68   34   66 1
    69   35   40 ar
    70   35   36 ar
    71   36   37 ar
    72   36   67 1
    73   37   38 ar
    74   37   68 1
    75   38   39 ar
    76   38   69 1
    77   39   40 ar
    78   39   70 1
    79   40   71 1
@<TRIPOS>MOLECULE
CHEMBL605733
   61    65     0     0     0
SMALL
USER_CHARGES

@<TRIPOS>ATOM
      1 C1         -0.8148    0.5586    0.2848 C.3       1 <0>        -0.0775
      2 C2         -0.7022   -0.9286    0.0689 C.2       1 <0>         0.1035
      3 C3         -0.5249   -1.6008   -1.2149 C.ar      1 <0>        -0.1756
      4 C4         -0.4119   -1.1549   -2.5347 C.ar      1 <0>        -0.0161
      5 C5         -0.2474   -2.0797   -3.5545 C.ar      1 <0>        -0.1048
      6 C6         -0.1955   -3.4489   -3.2625 C.ar      1 <0>        -0.0415
      7 C7         -0.3050   -3.8910   -1.9778 C.ar      1 <0>        -0.1338
      8 C8         -0.4707   -2.9804   -0.9353 C.ar      1 <0>         0.1466
      9 N1         -0.6068   -3.1126    0.4222 N.pl3     1 <0>        -0.5040
     10 H1         -0.6070   -3.9520    0.9084 H         1 <0>         0.4441
     11 N2         -0.7398   -1.8437    0.9947 N.2       1 <0>        -0.2426
     12 C9         -0.1264   -1.6183   -4.9581 C.ar      1 <0>        -0.0211
     13 C10        -1.1195   -0.8240   -5.5317 C.ar      1 <0>        -0.0861
     14 C11        -0.9597   -0.4174   -6.8508 C.ar      1 <0>         0.0653
     15 C12         0.1731   -0.8097   -7.5526 C.ar      1 <0>         0.0308
     16 N3          1.0966   -1.5601   -6.9883 N.ar      1 <0>        -0.4299
     17 C13         0.9926   -1.9687   -5.7309 C.ar      1 <0>         0.1711
     18 C14         2.0613   -2.8061   -5.1394 C.ar      1 <0>        -0.0653
     19 C15         2.6266   -2.4573   -3.9136 C.ar      1 <0>        -0.0625
     20 C16         3.6226   -3.2416   -3.3668 C.ar      1 <0>        -0.0454
     21 C17         4.0625   -4.3742   -4.0320 C.ar      1 <0>        -0.0783
     22 C18         3.5088   -4.7284   -5.2474 C.ar      1 <0>        -0.1345
     23 C19         2.5043   -3.9538   -5.8053 C.ar      1 <0>         0.1456
     24 O1          1.9553   -4.3050   -6.9972 O.3       1 <0>        -0.4888
     25 Cl1         4.3265   -2.8066   -1.8407 Cl        1 <0>        -0.0566
     26 O2         -1.9032    0.3568   -7.4489 O.3       1 <0>        -0.3213
     27 C20        -1.6673    0.7341   -8.8069 C.3       1 <0>         0.0269
     28 C21        -2.8282    1.5969   -9.3055 C.3       1 <0>         0.0434
     29 H2         -3.7669    1.0623   -9.1597 H         1 <0>         0.1556
     30 C22        -2.6380    1.8970  -10.7937 C.3       1 <0>        -0.0969
     31 C23        -3.8406    2.6417  -11.3136 C.ar      1 <0>        -0.1306
     32 C24        -4.9189    1.9431  -11.8237 C.ar      1 <0>        -0.1029
     33 C25        -6.0220    2.6262  -12.3006 C.ar      1 <0>        -0.1052
     34 C26        -6.0470    4.0079  -12.2670 C.ar      1 <0>        -0.1012
     35 C27        -4.9691    4.7065  -11.7562 C.ar      1 <0>        -0.1074
     36 C28        -3.8678    4.0233  -11.2753 C.ar      1 <0>        -0.1401
     37 N4         -2.8604    2.8575   -8.5520 N.4       1 <0>        -0.6366
     38 H3          0.1785    0.9794    0.4405 H         1 <0>         0.0857
     39 H4         -1.2715    1.0193   -0.5911 H         1 <0>         0.0801
     40 H5         -1.4331    0.7527    1.1613 H         1 <0>         0.0827
     41 H6         -0.4528   -0.0991   -2.7583 H         1 <0>         0.1296
     42 H7         -0.0678   -4.1617   -4.0638 H         1 <0>         0.1301
     43 H8         -0.2637   -4.9495   -1.7670 H         1 <0>         0.1323
     44 H9         -1.9913   -0.5327   -4.9646 H         1 <0>         0.1504
     45 H10         0.2983   -0.4946   -8.5779 H         1 <0>         0.1597
     46 H11         2.2860   -1.5747   -3.3926 H         1 <0>         0.1374
     47 H12         4.8423   -4.9830   -3.5988 H         1 <0>         0.1426
     48 H13         3.8564   -5.6125   -5.7612 H         1 <0>         0.1449
     49 H14         2.4059   -3.9264   -7.7645 H         1 <0>         0.3978
     50 H15        -0.7391    1.3021   -8.8701 H         1 <0>         0.0928
     51 H16        -1.5884   -0.1608   -9.4241 H         1 <0>         0.1145
     52 H17        -1.7456    2.5078  -10.9300 H         1 <0>         0.1037
     53 H18        -2.5252    0.9615  -11.3415 H         1 <0>         0.1255
     54 H19        -4.8993    0.8636  -11.8499 H         1 <0>         0.1308
     55 H20        -6.8641    2.0804  -12.6997 H         1 <0>         0.1335
     56 H21        -6.9085    4.5416  -12.6403 H         1 <0>         0.1330
     57 H22        -4.9885    5.7860  -11.7303 H         1 <0>         0.1325
     58 H23        -3.0272    4.5690  -10.8727 H         1 <0>         0.1228
     59 H24        -3.6260    3.4264   -8.8808 H         1 <0>         0.4367
     60 H25        -2.9858    2.6595   -7.5705 H         1 <0>         0.4424
     61 H26        -1.9915    3.3523   -8.6869 H         1 <0>         0.4322
@<TRIPOS>BOND
     1    1    2 1
     2    1   38 1
     3    1   39 1
     4    1   40 1
     5    2   11 2
     6    2    3 1
     7    3    8 ar
     8    3    4 ar
     9    4    5 ar
    10    4   41 1
    11    5    6 ar
    12    5   12 1
    13    6    7 ar
    14    6   42 1
    15    7    8 ar
    16    7   43 1
    17    8    9 1
    18    9   10 1
    19    9   11 1
    20   12   17 ar
    21   12   13 ar
    22   13   14 ar
    23   13   44 1
    24   14   15 ar
    25   14   26 1
    26   15   16 ar
    27   15   45 1
    28   16   17 ar
    29   17   18 1
    30   18   23 ar
    31   18   19 ar
    32   19   20 ar
    33   19   46 1
    34   20   21 ar
    35   20   25 1
    36   21   22 ar
    37   21   47 1
    38   22   23 ar
    39   22   48 1
    40   23   24 1
    41   24   49 1
    42   26   27 1
    43   27   28 1
    44   27   50 1
    45   27   51 1
    46   28   29 1
    47   28   30 1
    48   28   37 1
    49   30   31 1
    50   30   52 1
    51   30   53 1
    52   31   36 ar
    53   31   32 ar
    54   32   33 ar
    55   32   54 1
    56   33   34 ar
    57   33   55 1
    58   34   35 ar
    59   34   56 1
    60   35   36 ar
    61   35   57 1
    62   36   58 1
    63   37   59 1
    64   37   60 1
    65   37   61 1
@<TRIPOS>MOLECULE
CHEMBL494089
   59    62     0     0     0
SMALL
USER_CHARGES

@<TRIPOS>ATOM
      1 C1         -0.0187    1.5258    0.0104 C.3       1 <0>        -0.1656
      2 C2          0.0021   -0.0041    0.0020 C.3       1 <0>         0.0991
      3 N1          0.6878   -0.4765   -1.2033 N.pl3     1 <0>        -0.4455
      4 C3          0.1084   -0.7452   -2.4220 C.ar      1 <0>         0.0734
      5 C4         -1.1885   -0.6848   -2.9333 C.ar      1 <0>         0.0979
      6 C5         -1.4068   -1.0423   -4.2530 C.ar      1 <0>         0.0255
      7 N2         -0.4156   -1.4373   -5.0310 N.ar      1 <0>        -0.4288
      8 C6          0.8360   -1.5144   -4.6003 C.ar      1 <0>         0.2963
      9 C7          1.1491   -1.1685   -3.2692 C.ar      1 <0>         0.0642
     10 N3          2.2847   -1.1401   -2.5504 N.2       1 <0>        -0.4358
     11 C8          2.0279   -0.7287   -1.3319 C.2       1 <0>         0.3425
     12 C9          3.0324   -0.5655   -0.2583 C.2       1 <0>         0.1311
     13 C10         4.4724   -0.8253   -0.3802 C.2       1 <0>         0.3646
     14 N4          5.0335   -0.5707    0.7697 N.2       1 <0>        -0.3434
     15 O1          4.0212   -0.1472    1.6654 O.3       1 <0>         0.0494
     16 N5          2.7917   -0.1594    0.9619 N.2       1 <0>        -0.2485
     17 N6          5.1251   -1.2670   -1.5235 N.pl3     1 <0>        -0.7999
     18 C11         1.8718   -1.9500   -5.4881 C.1       1 <0>        -0.1208
     19 C12         2.7209   -2.3071   -6.2159 C.1       1 <0>        -0.0802
     20 C13         3.7856   -2.7549   -7.1284 C.3       1 <0>         0.2403
     21 C14         5.1250   -2.7540   -6.3888 C.3       1 <0>        -0.1769
     22 C15         3.4749   -4.1704   -7.6190 C.3       1 <0>        -0.1771
     23 O2          3.8585   -1.8683   -8.2468 O.3       1 <0>        -0.5533
     24 O3         -2.2219   -0.2814   -2.1476 O.3       1 <0>        -0.3053
     25 C16        -3.5183   -0.2475   -2.7478 C.3       1 <0>         0.0602
     26 C17        -4.5450    0.2275   -1.7176 C.3       1 <0>        -0.1100
     27 H1         -4.4926   -0.4065   -0.8325 H         1 <0>         0.1080
     28 C18        -4.2441    1.6772   -1.3267 C.3       1 <0>        -0.1348
     29 C19        -5.3219    2.1680   -0.3558 C.3       1 <0>        -0.1475
     30 C20        -6.6969    2.0173   -1.0100 C.3       1 <0>        -0.0100
     31 N7         -6.9357    0.6061   -1.3358 N.4       1 <0>        -0.5023
     32 C21        -5.9489    0.1476   -2.3210 C.3       1 <0>        -0.0035
     33 H2          1.0039    1.9031    0.0027 H         1 <0>         0.0658
     34 H3         -0.5459    1.8868   -0.8726 H         1 <0>         0.0628
     35 H4         -0.5289    1.8773    0.9072 H         1 <0>         0.0853
     36 H5          0.5293   -0.3651    0.8851 H         1 <0>         0.1095
     37 H6         -1.0205   -0.3814    0.0098 H         1 <0>         0.1024
     38 H7         -2.4085   -0.9976   -4.6543 H         1 <0>         0.1718
     39 H8          4.6220   -1.4309   -2.3365 H         1 <0>         0.4312
     40 H9          6.0842   -1.4116   -1.5092 H         1 <0>         0.4212
     41 H10         5.0694   -3.4303   -5.5357 H         1 <0>         0.0725
     42 H11         5.9134   -3.0856   -7.0645 H         1 <0>         0.0747
     43 H12         5.3464   -1.7456   -6.0392 H         1 <0>         0.0708
     44 H13         2.5207   -4.1710   -8.1459 H         1 <0>         0.0706
     45 H14         4.2633   -4.5020   -8.2948 H         1 <0>         0.0744
     46 H15         3.4193   -4.8466   -6.7660 H         1 <0>         0.0730
     47 H16         4.5403   -2.1031   -8.8910 H         1 <0>         0.3893
     48 H17        -3.5089    0.4388   -3.5945 H         1 <0>         0.0809
     49 H18        -3.7852   -1.2465   -3.0928 H         1 <0>         0.0809
     50 H19        -3.2679    1.7296   -0.8445 H         1 <0>         0.1002
     51 H20        -4.2451    2.3031   -2.2191 H         1 <0>         0.0849
     52 H21        -5.2864    1.5744    0.5577 H         1 <0>         0.0898
     53 H22        -5.1458    3.2167   -0.1163 H         1 <0>         0.1153
     54 H23        -7.4666    2.3660   -0.3215 H         1 <0>         0.1359
     55 H24        -6.7314    2.6114   -1.9232 H         1 <0>         0.1322
     56 H25        -6.8551    0.0502   -0.4977 H         1 <0>         0.4295
     57 H26        -5.9999    0.7811   -3.2066 H         1 <0>         0.1367
     58 H27        -6.1659   -0.8835   -2.6000 H         1 <0>         0.1389
     59 H28        -7.8638    0.5026   -1.7178 H         1 <0>         0.4360
@<TRIPOS>BOND
     1    1    2 1
     2    1   33 1
     3    1   34 1
     4    1   35 1
     5    2    3 1
     6    2   36 1
     7    2   37 1
     8    3   11 1
     9    3    4 1
    10    4    9 ar
    11    4    5 ar
    12    5    6 ar
    13    5   24 1
    14    6    7 ar
    15    6   38 1
    16    7    8 ar
    17    8    9 ar
    18    8   18 1
    19    9   10 1
    20   10   11 2
    21   11   12 1
    22   12   16 2
    23   12   13 1
    24   13   14 2
    25   13   17 1
    26   14   15 1
    27   15   16 1
    28   17   39 1
    29   17   40 1
    30   18   19 3
    31   19   20 1
    32   20   21 1
    33   20   22 1
    34   20   23 1
    35   21   41 1
    36   21   42 1
    37   21   43 1
    38   22   44 1
    39   22   45 1
    40   22   46 1
    41   23   47 1
    42   24   25 1
    43   25   26 1
    44   25   48 1
    45   25   49 1
    46   26   27 1
    47   26   32 1
    48   26   28 1
    49   28   29 1
    50   28   50 1
    51   28   51 1
    52   29   30 1
    53   29   52 1
    54   29   53 1
    55   30   31 1
    56   30   54 1
    57   30   55 1
    58   31   32 1
    59   31   56 1
    60   31   59 1
    61   32   57 1
    62   32   58 1
@<TRIPOS>MOLECULE
CHEMBL522857
   56    59     0     0     0
SMALL
USER_CHARGES

@<TRIPOS>ATOM
      1 C1          0.1632    1.6817   -0.3491 C.3       1 <0>        -0.1654
      2 C2          0.0719    0.1742   -0.1044 C.3       1 <0>         0.0979
      3 N1          0.6895   -0.5406   -1.2242 N.pl3     1 <0>        -0.4442
      4 C3          0.0603   -0.9605   -2.3735 C.ar      1 <0>         0.0742
      5 C4         -1.2416   -0.8859   -2.8698 C.ar      1 <0>         0.0926
      6 C5         -1.5199   -1.4374   -4.1090 C.ar      1 <0>         0.0209
      7 N2         -0.5810   -2.0292   -4.8244 N.ar      1 <0>        -0.4302
      8 C6          0.6726   -2.1299   -4.4042 C.ar      1 <0>         0.2983
      9 C7          1.0448   -1.5953   -3.1531 C.ar      1 <0>         0.0636
     10 N3          2.1978   -1.5362   -2.4646 N.2       1 <0>        -0.4379
     11 C8          2.0037   -0.9120   -1.3277 C.2       1 <0>         0.3465
     12 C9          3.0452   -0.6521   -0.3098 C.2       1 <0>         0.1282
     13 C10         4.4588   -1.0376   -0.4068 C.2       1 <0>         0.3642
     14 N4          5.0669   -0.6413    0.6772 N.2       1 <0>        -0.3414
     15 O1          4.1120   -0.0006    1.5043 O.3       1 <0>         0.0518
     16 N5          2.8669   -0.0341    0.8295 N.2       1 <0>        -0.2460
     17 N6          5.0473   -1.7094   -1.4701 N.pl3     1 <0>        -0.8008
     18 C11         1.6501   -2.7831   -5.2217 C.1       1 <0>        -0.1260
     19 C12         2.4516   -3.3185   -5.8919 C.1       1 <0>        -0.1180
     20 C13         3.4565   -3.9899   -6.7323 C.3       1 <0>         0.2394
     21 C14         4.8112   -3.9700   -6.0216 C.3       1 <0>        -0.1762
     22 C15         3.0305   -5.4388   -6.9775 C.3       1 <0>        -0.1390
     23 O2          3.5646   -3.3071   -7.9829 O.3       1 <0>        -0.5439
     24 O3         -2.2219   -0.2814   -2.1476 O.3       1 <0>        -0.2936
     25 C16        -3.4982   -0.1423   -2.7752 C.3       1 <0>         0.0716
     26 C17        -4.3104   -1.4249   -2.5738 C.3       1 <0>        -0.1821
     27 C18        -5.7037   -1.2400   -3.1788 C.3       1 <0>        -0.0030
     28 N7         -6.3835   -0.1196   -2.5177 N.4       1 <0>        -0.5079
     29 C19        -5.6483    1.1261   -2.7670 C.3       1 <0>        -0.0016
     30 C20        -4.2529    1.0323   -2.1462 C.3       1 <0>        -0.1457
     31 H1          1.2100    1.9734   -0.4332 H         1 <0>         0.0656
     32 H2         -0.3592    1.9322   -1.2724 H         1 <0>         0.0623
     33 H3         -0.2963    2.2135    0.4841 H         1 <0>         0.0877
     34 H4          0.5942   -0.0763    0.8189 H         1 <0>         0.1107
     35 H5         -0.9750   -0.1175   -0.0202 H         1 <0>         0.1034
     36 H6         -2.5258   -1.3827   -4.4983 H         1 <0>         0.1694
     37 H7          4.5125   -1.9655   -2.2377 H         1 <0>         0.4301
     38 H8          5.9933   -1.9225   -1.4452 H         1 <0>         0.4216
     39 H9          4.7288   -4.4909   -5.0676 H         1 <0>         0.0739
     40 H10         5.5553   -4.4672   -6.6438 H         1 <0>         0.0811
     41 H11         5.1148   -2.9378   -5.8469 H         1 <0>         0.0641
     42 H12         2.0653   -5.4530   -7.4839 H         1 <0>         0.0682
     43 H13         3.7746   -5.9360   -7.5998 H         1 <0>         0.0794
     44 H14         2.9480   -5.9597   -6.0236 H         1 <0>         0.0773
     45 H15         3.8316   -2.3811   -7.9036 H         1 <0>         0.3833
     46 H16        -3.3622    0.0407   -3.8411 H         1 <0>         0.0965
     47 H17        -3.8067   -2.2560   -3.0672 H         1 <0>         0.1210
     48 H18        -4.4013   -1.6345   -1.5080 H         1 <0>         0.1043
     49 H19        -5.6117   -1.0307   -4.2445 H         1 <0>         0.1361
     50 H20        -6.2846   -2.1514   -3.0372 H         1 <0>         0.1427
     51 H21        -7.3208   -0.0344   -2.8814 H         1 <0>         0.4369
     52 H22        -5.5575    1.2850   -3.8416 H         1 <0>         0.1362
     53 H23        -6.1884    1.9616   -2.3215 H         1 <0>         0.1446
     54 H24        -4.3426    0.8737   -1.0715 H         1 <0>         0.1029
     55 H25        -3.7081    1.9575   -2.3340 H         1 <0>         0.1235
     56 H26        -6.4247   -0.2915   -1.5243 H         1 <0>         0.4307
@<TRIPOS>BOND
     1    1    2 1
     2    1   31 1
     3    1   32 1
     4    1   33 1
     5    2    3 1
     6    2   34 1
     7    2   35 1
     8    3   11 1
     9    3    4 1
    10    4    9 ar
    11    4    5 ar
    12    5    6 ar
    13    5   24 1
    14    6    7 ar
    15    6   36 1
    16    7    8 ar
    17    8    9 ar
    18    8   18 1
    19    9   10 1
    20   10   11 2
    21   11   12 1
    22   12   16 2
    23   12   13 1
    24   13   14 2
    25   13   17 1
    26   14   15 1
    27   15   16 1
    28   17   37 1
    29   17   38 1
    30   18   19 3
    31   19   20 1
    32   20   21 1
    33   20   22 1
    34   20   23 1
    35   21   39 1
    36   21   40 1
    37   21   41 1
    38   22   42 1
    39   22   43 1
    40   22   44 1
    41   23   45 1
    42   24   25 1
    43   25   30 1
    44   25   26 1
    45   25   46 1
    46   26   27 1
    47   26   47 1
    48   26   48 1
    49   27   28 1
    50   27   49 1
    51   27   50 1
    52   28   29 1
    53   28   51 1
    54   28   56 1
    55   29   30 1
    56   29   52 1
    57   29   53 1
    58   30   54 1
    59   30   55 1
@<TRIPOS>MOLECULE
CHEMBL494088
   56    59     0     0     0
SMALL
USER_CHARGES

@<TRIPOS>ATOM
      1 C1         -0.0187    1.5258    0.0104 C.3       1 <0>        -0.1661
      2 C2          0.0021   -0.0041    0.0020 C.3       1 <0>         0.0996
      3 N1          0.6878   -0.4765   -1.2033 N.pl3     1 <0>        -0.4454
      4 C3          0.1084   -0.7452   -2.4220 C.ar      1 <0>         0.0734
      5 C4         -1.1885   -0.6848   -2.9333 C.ar      1 <0>         0.0967
      6 C5         -1.4068   -1.0423   -4.2530 C.ar      1 <0>         0.0248
      7 N2         -0.4156   -1.4373   -5.0310 N.ar      1 <0>        -0.4294
      8 C6          0.8360   -1.5144   -4.6003 C.ar      1 <0>         0.2975
      9 C7          1.1491   -1.1685   -3.2692 C.ar      1 <0>         0.0644
     10 N3          2.2847   -1.1401   -2.5504 N.2       1 <0>        -0.4360
     11 C8          2.0279   -0.7287   -1.3319 C.2       1 <0>         0.3436
     12 C9          3.0324   -0.5655   -0.2583 C.2       1 <0>         0.1304
     13 C10         4.4724   -0.8253   -0.3802 C.2       1 <0>         0.3645
     14 N4          5.0335   -0.5707    0.7697 N.2       1 <0>        -0.3431
     15 O1          4.0212   -0.1472    1.6654 O.3       1 <0>         0.0500
     16 N5          2.7917   -0.1594    0.9619 N.2       1 <0>        -0.2479
     17 N6          5.1251   -1.2670   -1.5235 N.pl3     1 <0>        -0.8000
     18 C11         1.8718   -1.9500   -5.4881 C.1       1 <0>        -0.1218
     19 C12         2.7209   -2.3071   -6.2159 C.1       1 <0>        -0.0789
     20 C13         3.7856   -2.7549   -7.1284 C.3       1 <0>         0.2401
     21 C14         5.1250   -2.7540   -6.3888 C.3       1 <0>        -0.1769
     22 C15         3.4749   -4.1704   -7.6190 C.3       1 <0>        -0.1771
     23 O2          3.8585   -1.8683   -8.2468 O.3       1 <0>        -0.5531
     24 O3         -2.2219   -0.2814   -2.1476 O.3       1 <0>        -0.3051
     25 C16        -3.5183   -0.2475   -2.7478 C.3       1 <0>         0.0548
     26 C17        -4.5450    0.2275   -1.7176 C.3       1 <0>        -0.1103
     27 C18        -4.7437   -0.8465   -0.6235 C.3       1 <0>        -0.1424
     28 C19        -6.2693   -0.7928   -0.3583 C.3       1 <0>        -0.0050
     29 N7         -6.8412   -0.5615   -1.7095 N.4       1 <0>        -0.5173
     30 C20        -5.9272    0.3908   -2.3766 C.3       1 <0>        -0.0007
     31 H1          1.0039    1.9031    0.0027 H         1 <0>         0.0656
     32 H2         -0.5459    1.8868   -0.8726 H         1 <0>         0.0634
     33 H3         -0.5289    1.8773    0.9072 H         1 <0>         0.0863
     34 H4          0.5293   -0.3651    0.8851 H         1 <0>         0.1096
     35 H5         -1.0205   -0.3814    0.0098 H         1 <0>         0.1018
     36 H6         -2.4085   -0.9976   -4.6543 H         1 <0>         0.1707
     37 H7          4.6220   -1.4309   -2.3365 H         1 <0>         0.4311
     38 H8          6.0842   -1.4116   -1.5092 H         1 <0>         0.4213
     39 H9          5.0694   -3.4303   -5.5357 H         1 <0>         0.0723
     40 H10         5.9134   -3.0856   -7.0645 H         1 <0>         0.0748
     41 H11         5.3464   -1.7456   -6.0392 H         1 <0>         0.0709
     42 H12         2.5207   -4.1710   -8.1459 H         1 <0>         0.0706
     43 H13         4.2633   -4.5020   -8.2948 H         1 <0>         0.0746
     44 H14         3.4193   -4.8466   -6.7660 H         1 <0>         0.0728
     45 H15         4.5403   -2.1031   -8.8910 H         1 <0>         0.3895
     46 H16        -3.5089    0.4388   -3.5945 H         1 <0>         0.0837
     47 H17        -3.7852   -1.2465   -3.0928 H         1 <0>         0.0765
     48 H18        -4.2248    1.1691   -1.2717 H         1 <0>         0.1262
     49 H19        -4.4505   -1.8300   -0.9907 H         1 <0>         0.1013
     50 H20        -4.1864   -0.5878    0.2767 H         1 <0>         0.1212
     51 H21        -6.6220   -1.7391    0.0519 H         1 <0>         0.1411
     52 H22        -6.5148    0.0327    0.3098 H         1 <0>         0.1389
     53 H23        -6.8774   -1.4282   -2.2250 H         1 <0>         0.4331
     54 H24        -6.2869    1.4103   -2.2372 H         1 <0>         0.1437
     55 H25        -5.8613    0.1596   -3.4398 H         1 <0>         0.1384
     56 H26        -7.7645   -0.1620   -1.6328 H         1 <0>         0.4374
@<TRIPOS>BOND
     1    1    2 1
     2    1   31 1
     3    1   32 1
     4    1   33 1
     5    2    3 1
     6    2   34 1
     7    2   35 1
     8    3   11 1
     9    3    4 1
    10    4    9 ar
    11    4    5 ar
    12    5    6 ar
    13    5   24 1
    14    6    7 ar
    15    6   36 1
    16    7    8 ar
    17    8    9 ar
    18    8   18 1
    19    9   10 1
    20   10   11 2
    21   11   12 1
    22   12   16 2
    23   12   13 1
    24   13   14 2
    25   13   17 1
    26   14   15 1
    27   15   16 1
    28   17   37 1
    29   17   38 1
    30   18   19 3
    31   19   20 1
    32   20   21 1
    33   20   22 1
    34   20   23 1
    35   21   39 1
    36   21   40 1
    37   21   41 1
    38   22   42 1
    39   22   43 1
    40   22   44 1
    41   23   45 1
    42   24   25 1
    43   25   26 1
    44   25   46 1
    45   25   47 1
    46   26   30 1
    47   26   27 1
    48   26   48 1
    49   27   28 1
    50   27   49 1
    51   27   50 1
    52   28   29 1
    53   28   51 1
    54   28   52 1
    55   29   30 1
    56   29   53 1
    57   29   56 1
    58   30   54 1
    59   30   55 1
@<TRIPOS>MOLECULE
CHEMBL494088
   56    59     0     0     0
SMALL
USER_CHARGES

@<TRIPOS>ATOM
      1 C1         -0.0187    1.5258    0.0104 C.3       1 <0>        -0.1652
      2 C2          0.0021   -0.0041    0.0020 C.3       1 <0>         0.0985
      3 N1          0.6878   -0.4765   -1.2033 N.pl3     1 <0>        -0.4455
      4 C3          0.1084   -0.7452   -2.4220 C.ar      1 <0>         0.0736
      5 C4         -1.1885   -0.6848   -2.9333 C.ar      1 <0>         0.0971
      6 C5         -1.4068   -1.0423   -4.2530 C.ar      1 <0>         0.0255
      7 N2         -0.4156   -1.4373   -5.0310 N.ar      1 <0>        -0.4291
      8 C6          0.8360   -1.5144   -4.6003 C.ar      1 <0>         0.2972
      9 C7          1.1491   -1.1685   -3.2692 C.ar      1 <0>         0.0642
     10 N3          2.2847   -1.1401   -2.5504 N.2       1 <0>        -0.4358
     11 C8          2.0279   -0.7287   -1.3319 C.2       1 <0>         0.3431
     12 C9          3.0324   -0.5655   -0.2583 C.2       1 <0>         0.1308
     13 C10         4.4724   -0.8253   -0.3802 C.2       1 <0>         0.3646
     14 N4          5.0335   -0.5707    0.7697 N.2       1 <0>        -0.3432
     15 O1          4.0212   -0.1472    1.6654 O.3       1 <0>         0.0497
     16 N5          2.7917   -0.1594    0.9619 N.2       1 <0>        -0.2483
     17 N6          5.1251   -1.2670   -1.5235 N.pl3     1 <0>        -0.7999
     18 C11         1.8718   -1.9500   -5.4881 C.1       1 <0>        -0.1215
     19 C12         2.7209   -2.3071   -6.2159 C.1       1 <0>        -0.0793
     20 C13         3.7856   -2.7549   -7.1284 C.3       1 <0>         0.2402
     21 C14         5.1250   -2.7540   -6.3888 C.3       1 <0>        -0.1770
     22 C15         3.4749   -4.1704   -7.6190 C.3       1 <0>        -0.1771
     23 O2          3.8585   -1.8683   -8.2468 O.3       1 <0>        -0.5533
     24 O3         -2.2219   -0.2814   -2.1476 O.3       1 <0>        -0.3058
     25 C16        -3.5183   -0.2475   -2.7478 C.3       1 <0>         0.0596
     26 C17        -4.5450    0.2275   -1.7176 C.3       1 <0>        -0.1080
     27 C18        -4.3640    1.7392   -1.4196 C.3       1 <0>        -0.1408
     28 C19        -5.7896    2.1417   -0.9667 C.3       1 <0>        -0.0096
     29 N7         -6.6962    1.3517   -1.8269 N.4       1 <0>        -0.5130
     30 C20        -5.9732    0.1561   -2.2977 C.3       1 <0>        -0.0045
     31 H1          1.0039    1.9031    0.0027 H         1 <0>         0.0657
     32 H2         -0.5459    1.8868   -0.8726 H         1 <0>         0.0623
     33 H3         -0.5289    1.8773    0.9072 H         1 <0>         0.0855
     34 H4          0.5293   -0.3651    0.8851 H         1 <0>         0.1098
     35 H5         -1.0205   -0.3814    0.0098 H         1 <0>         0.1030
     36 H6         -2.4085   -0.9976   -4.6543 H         1 <0>         0.1714
     37 H7          4.6220   -1.4309   -2.3365 H         1 <0>         0.4311
     38 H8          6.0842   -1.4116   -1.5092 H         1 <0>         0.4213
     39 H9          5.0694   -3.4303   -5.5357 H         1 <0>         0.0726
     40 H10         5.9134   -3.0856   -7.0645 H         1 <0>         0.0748
     41 H11         5.3464   -1.7456   -6.0392 H         1 <0>         0.0708
     42 H12         2.5207   -4.1710   -8.1459 H         1 <0>         0.0705
     43 H13         4.2633   -4.5020   -8.2948 H         1 <0>         0.0745
     44 H14         3.4193   -4.8466   -6.7660 H         1 <0>         0.0731
     45 H15         4.5403   -2.1031   -8.8910 H         1 <0>         0.3894
     46 H16        -3.5089    0.4388   -3.5945 H         1 <0>         0.0798
     47 H17        -3.7852   -1.2465   -3.0928 H         1 <0>         0.0838
     48 H18        -4.4709   -0.3601   -0.8025 H         1 <0>         0.1218
     49 H19        -3.6412    1.8955   -0.6188 H         1 <0>         0.1219
     50 H20        -4.0720    2.2821   -2.3185 H         1 <0>         0.1020
     51 H21        -5.9415    1.8847    0.0816 H         1 <0>         0.1370
     52 H22        -5.9508    3.2082   -1.1240 H         1 <0>         0.1403
     53 H23        -7.5079    1.0711   -1.2973 H         1 <0>         0.4358
     54 H24        -5.9314    0.1530   -3.3869 H         1 <0>         0.1378
     55 H25        -6.4737   -0.7442   -1.9411 H         1 <0>         0.1427
     56 H26        -6.9840    1.9080   -2.6180 H         1 <0>         0.4340
@<TRIPOS>BOND
     1    1    2 1
     2    1   31 1
     3    1   32 1
     4    1   33 1
     5    2    3 1
     6    2   34 1
     7    2   35 1
     8    3   11 1
     9    3    4 1
    10    4    9 ar
    11    4    5 ar
    12    5    6 ar
    13    5   24 1
    14    6    7 ar
    15    6   36 1
    16    7    8 ar
    17    8    9 ar
    18    8   18 1
    19    9   10 1
    20   10   11 2
    21   11   12 1
    22   12   16 2
    23   12   13 1
    24   13   14 2
    25   13   17 1
    26   14   15 1
    27   15   16 1
    28   17   37 1
    29   17   38 1
    30   18   19 3
    31   19   20 1
    32   20   21 1
    33   20   22 1
    34   20   23 1
    35   21   39 1
    36   21   40 1
    37   21   41 1
    38   22   42 1
    39   22   43 1
    40   22   44 1
    41   23   45 1
    42   24   25 1
    43   25   26 1
    44   25   46 1
    45   25   47 1
    46   26   30 1
    47   26   27 1
    48   26   48 1
    49   27   28 1
    50   27   49 1
    51   27   50 1
    52   28   29 1
    53   28   51 1
    54   28   52 1
    55   29   30 1
    56   29   53 1
    57   29   56 1
    58   30   54 1
    59   30   55 1
@<TRIPOS>MOLECULE
CHEMBL536485
   83    87     0     0     0
SMALL
USER_CHARGES

@<TRIPOS>ATOM
      1 C1          3.2706    4.2517    1.9092 C.3       1 <0>        -0.1663
      2 C2          2.9468    4.0718    0.4247 C.3       1 <0>        -0.0702
      3 C3          2.2036    5.3079   -0.0900 C.3       1 <0>        -0.1276
      4 C4          0.8698    5.4351    0.6515 C.3       1 <0>        -0.1508
      5 C5          0.0610    4.1504    0.4593 C.3       1 <0>        -0.0079
      6 N1          0.8135    3.0095    0.9948 N.4       1 <0>        -0.5057
      7 C6          2.0611    2.8376    0.2409 C.3       1 <0>         0.0913
      8 C7          2.7885    1.6183    0.7459 C.ar      1 <0>        -0.1768
      9 C8          2.4928    1.1090    1.9991 C.ar      1 <0>        -0.0700
     10 C9          3.1523   -0.0079    2.4748 C.ar      1 <0>        -0.1351
     11 C10         4.1179   -0.6298    1.6989 C.ar      1 <0>         0.2002
     12 C11         4.4231   -0.1199    0.4273 C.ar      1 <0>        -0.1989
     13 C12         3.7431    1.0105   -0.0453 C.ar      1 <0>         0.1815
     14 F1          4.0243    1.5073   -1.2697 F         1 <0>        -0.1118
     15 C13         5.4468   -0.7715   -0.4064 C.2       1 <0>         0.4488
     16 O1          5.1343   -1.6755   -1.1570 O.2       1 <0>        -0.4085
     17 C14         6.8561   -0.3260   -0.3309 C.ar      1 <0>        -0.1309
     18 C15         7.2361    0.6318    0.6112 C.ar      1 <0>        -0.0703
     19 C16         8.5483    1.0460    0.6816 C.ar      1 <0>        -0.0653
     20 C17         9.4977    0.5082   -0.1888 C.ar      1 <0>        -0.1065
     21 C18         9.1180   -0.4490   -1.1310 C.ar      1 <0>        -0.0938
     22 C19         7.8070   -0.8677   -1.1980 C.ar      1 <0>        -0.0611
     23 C20        10.9073    0.9534   -0.1129 C.2       1 <0>         0.5653
     24 O2         11.2380    1.7871    0.7072 O.2       1 <0>        -0.5130
     25 N2         11.8242    0.4341   -0.9533 N.am      1 <0>        -0.7257
     26 C21        13.2193    0.8747   -0.8783 C.3       1 <0>         0.1254
     27 H1         13.4757    1.0752    0.1620 H         1 <0>         0.1142
     28 C22        13.3872    2.1751   -1.7033 C.3       1 <0>        -0.1399
     29 C23        14.6846    2.8327   -1.3154 C.3       1 <0>        -0.1436
     30 C24        15.8758    2.4041   -2.1910 C.3       1 <0>        -0.0113
     31 N3         15.9088    0.9534   -2.4753 N.4       1 <0>        -0.4994
     32 C25        15.5779    0.1686   -1.3107 C.3       1 <0>        -0.0242
     33 C26        14.0832   -0.1825   -1.3889 C.3       1 <0>         0.1221
     34 H2         13.8220   -0.3766   -2.4292 H         1 <0>         0.1121
     35 N4         13.8455   -1.4014   -0.6117 N.am      1 <0>        -0.7222
     36 C27        14.1043   -2.6077   -1.1542 C.2       1 <0>         0.5727
     37 O3         14.5348   -2.6843   -2.2880 O.2       1 <0>        -0.5188
     38 C28        13.8640   -3.8404   -0.3683 C.ar      1 <0>        -0.1050
     39 C29        13.3636   -3.7750    0.9356 C.ar      1 <0>        -0.1427
     40 C30        13.1540   -4.9494    1.6323 C.ar      1 <0>         0.1044
     41 N5         13.4193   -6.1182    1.0839 N.ar      1 <0>        -0.4557
     42 C31        13.8919   -6.2246   -0.1420 C.ar      1 <0>         0.1075
     43 C32        14.1257   -5.1016   -0.9120 C.ar      1 <0>        -0.1094
     44 O4          4.7654   -1.7260    2.1666 O.3       1 <0>        -0.4826
     45 C33         4.2457    3.8905   -0.3632 C.3       1 <0>        -0.1512
     46 H3          3.7960    3.3699    2.2759 H         1 <0>         0.0741
     47 H4          3.9015    5.1310    2.0395 H         1 <0>         0.0883
     48 H5          2.3450    4.3824    2.4698 H         1 <0>         0.0548
     49 H6          2.8072    6.1974    0.0904 H         1 <0>         0.0996
     50 H7          2.0178    5.2027   -1.1589 H         1 <0>         0.0860
     51 H8          1.0574    5.5915    1.7138 H         1 <0>         0.0920
     52 H9          0.3102    6.2807    0.2517 H         1 <0>         0.1178
     53 H10        -0.8893    4.2376    0.9858 H         1 <0>         0.1403
     54 H11        -0.1262    3.9950   -0.6032 H         1 <0>         0.1344
     55 H12         1.0290    3.1763    1.9663 H         1 <0>         0.4241
     56 H13         1.8312    2.7102   -0.8170 H         1 <0>         0.1516
     57 H14         1.7415    1.5884    2.6091 H         1 <0>         0.1372
     58 H15         2.9151   -0.3973    3.4538 H         1 <0>         0.1602
     59 H16         6.5014    1.0483    1.2845 H         1 <0>         0.1346
     60 H17         8.8422    1.7872    1.4101 H         1 <0>         0.1478
     61 H18         9.8527   -0.8647   -1.8046 H         1 <0>         0.1332
     62 H19         7.5141   -1.6116   -1.9241 H         1 <0>         0.1461
     63 H20        11.5602   -0.2313   -1.6079 H         1 <0>         0.4065
     64 H21        13.4034    1.9338   -2.7661 H         1 <0>         0.0770
     65 H22        12.5581    2.8507   -1.4928 H         1 <0>         0.1057
     66 H23        14.5652    3.9133   -1.3932 H         1 <0>         0.1176
     67 H24        14.9062    2.5825   -0.2779 H         1 <0>         0.0919
     68 H25        15.8257    2.9438   -3.1367 H         1 <0>         0.1359
     69 H26        16.7996    2.6811   -1.6831 H         1 <0>         0.1362
     70 H27        15.2473    0.7475   -3.2088 H         1 <0>         0.4266
     71 H28        16.1718   -0.7453   -1.3009 H         1 <0>         0.1453
     72 H29        15.7747    0.7470   -0.4080 H         1 <0>         0.1447
     73 H30        13.5019   -1.3403    0.2933 H         1 <0>         0.4155
     74 H31        13.1447   -2.8207    1.3915 H         1 <0>         0.1359
     75 H32        12.7678   -4.9092    2.6401 H         1 <0>         0.1671
     76 H33        14.0954   -7.2030   -0.5515 H         1 <0>         0.1713
     77 H34        14.5086   -5.1964   -1.9174 H         1 <0>         0.1518
     78 H35         4.2943   -2.5565    2.0129 H         1 <0>         0.4160
     79 H36         4.7727    3.0093    0.0028 H         1 <0>         0.0640
     80 H37         4.0143    3.7624   -1.4206 H         1 <0>         0.0742
     81 H38         4.8754    4.7706   -0.2331 H         1 <0>         0.0797
     82 H39         0.2555    2.1726    0.9151 H         1 <0>         0.4326
     83 H40        16.8340    0.7013   -2.7891 H         1 <0>         0.4392
@<TRIPOS>BOND
     1    1    2 1
     2    1   46 1
     3    1   47 1
     4    1   48 1
     5    2    7 1
     6    2    3 1
     7    2   45 1
     8    3    4 1
     9    3   49 1
    10    3   50 1
    11    4    5 1
    12    4   51 1
    13    4   52 1
    14    5    6 1
    15    5   53 1
    16    5   54 1
    17    6    7 1
    18    6   55 1
    19    6   82 1
    20    7    8 1
    21    7   56 1
    22    8   13 ar
    23    8    9 ar
    24    9   10 ar
    25    9   57 1
    26   10   11 ar
    27   10   58 1
    28   11   12 ar
    29   11   44 1
    30   12   13 ar
    31   12   15 1
    32   13   14 1
    33   15   16 2
    34   15   17 1
    35   17   22 ar
    36   17   18 ar
    37   18   19 ar
    38   18   59 1
    39   19   20 ar
    40   19   60 1
    41   20   21 ar
    42   20   23 1
    43   21   22 ar
    44   21   61 1
    45   22   62 1
    46   23   24 2
    47   23   25 am
    48   25   26 1
    49   25   63 1
    50   26   27 1
    51   26   33 1
    52   26   28 1
    53   28   29 1
    54   28   64 1
    55   28   65 1
    56   29   30 1
    57   29   66 1
    58   29   67 1
    59   30   31 1
    60   30   68 1
    61   30   69 1
    62   31   32 1
    63   31   70 1
    64   31   83 1
    65   32   33 1
    66   32   71 1
    67   32   72 1
    68   33   34 1
    69   33   35 1
    70   35   36 am
    71   35   73 1
    72   36   37 2
    73   36   38 1
    74   38   43 ar
    75   38   39 ar
    76   39   40 ar
    77   39   74 1
    78   40   41 ar
    79   40   75 1
    80   41   42 ar
    81   42   43 ar
    82   42   76 1
    83   43   77 1
    84   44   78 1
    85   45   79 1
    86   45   80 1
    87   45   81 1
@<TRIPOS>MOLECULE
CHEMBL536485
   82    86     0     0     0
SMALL
USER_CHARGES

@<TRIPOS>ATOM
      1 C1          0.8170   -1.3394    3.2810 C.3       1 <0>        -0.1597
      2 C2          2.1652   -1.6305    3.9432 C.3       1 <0>        -0.0690
      3 C3          1.9381   -2.0807    5.3892 C.3       1 <0>        -0.1273
      4 C4          1.2868   -0.9377    6.1731 C.3       1 <0>        -0.1478
      5 C5          2.1755    0.3049    6.0854 C.3       1 <0>        -0.0060
      6 N1          2.3327    0.7003    4.6806 N.4       1 <0>        -0.5031
      7 C6          3.0214   -0.3622    3.9382 C.3       1 <0>         0.1181
      8 C7          3.2478    0.0846    2.5168 C.ar      1 <0>        -0.3194
      9 C8          2.4888    1.1154    1.9891 C.ar      1 <0>        -0.0516
     10 C9          2.6854    1.5348    0.6876 C.ar      1 <0>        -0.2290
     11 C10         3.6474    0.9256   -0.1027 C.ar      1 <0>         0.3283
     12 C11         4.4212   -0.1197    0.4250 C.ar      1 <0>        -0.3338
     13 C12         4.2151   -0.5320    1.7483 C.ar      1 <0>         0.2107
     14 F1          4.9575   -1.5334    2.2692 F         1 <0>        -0.1441
     15 C13         5.4462   -0.7749   -0.4043 C.2       1 <0>         0.4762
     16 O1          5.1770   -1.7929   -1.0120 O.2       1 <0>        -0.4427
     17 C14         6.8043   -0.1942   -0.4982 C.ar      1 <0>        -0.1032
     18 C15         7.1495    0.9054    0.2899 C.ar      1 <0>        -0.0651
     19 C16         8.4141    1.4456    0.2026 C.ar      1 <0>        -0.0678
     20 C17         9.3500    0.8935   -0.6734 C.ar      1 <0>        -0.1299
     21 C18         9.0050   -0.2056   -1.4617 C.ar      1 <0>        -0.0979
     22 C19         7.7423   -0.7496   -1.3706 C.ar      1 <0>        -0.0748
     23 C20        10.7084    1.4739   -0.7670 C.2       1 <0>         0.5717
     24 O2         11.0088    2.4310   -0.0810 O.2       1 <0>        -0.5216
     25 N2         11.6122    0.9409   -1.6129 N.am      1 <0>        -0.7296
     26 C21        12.9567    1.5153   -1.7054 C.3       1 <0>         0.1259
     27 H1         13.2637    1.8678   -0.7208 H         1 <0>         0.1120
     28 C22        12.9320    2.7118   -2.6891 C.3       1 <0>        -0.1419
     29 C23        14.1793    3.5307   -2.4897 C.3       1 <0>        -0.1429
     30 C24        15.3436    3.1084   -3.4037 C.3       1 <0>        -0.0104
     31 N3         15.5049    1.6430   -3.5166 N.4       1 <0>        -0.4991
     32 C25        15.3389    0.9832   -2.2443 C.3       1 <0>        -0.0234
     33 C26        13.8863    0.4874   -2.1571 C.3       1 <0>         0.1226
     34 H2         13.5738    0.1408   -3.1422 H         1 <0>         0.1120
     35 N4         13.8300   -0.6411   -1.2247 N.am      1 <0>        -0.7201
     36 C27        14.1722   -1.8766   -1.6405 C.2       1 <0>         0.5728
     37 O3         14.5274   -2.0545   -2.7889 O.2       1 <0>        -0.5212
     38 C28        14.1152   -3.0178   -0.6976 C.ar      1 <0>        -0.1033
     39 C29        13.7038   -2.8362    0.6263 C.ar      1 <0>        -0.1407
     40 C30        13.6651   -3.9282    1.4715 C.ar      1 <0>         0.1041
     41 N5         14.0095   -5.1269    1.0448 N.ar      1 <0>        -0.4573
     42 C31        14.4031   -5.3418   -0.1947 C.ar      1 <0>         0.1054
     43 C32        14.4659   -4.3075   -1.1084 C.ar      1 <0>        -0.1098
     44 O4          3.8398    1.3375   -1.3806 O.3       1 <0>        -0.6603
     45 C33         2.8860   -2.7366    3.1699 C.3       1 <0>        -0.1457
     46 H3          0.9795   -1.0152    2.2531 H         1 <0>         0.0826
     47 H4          0.2076   -2.2431    3.2849 H         1 <0>         0.0758
     48 H5          0.3033   -0.5525    3.8332 H         1 <0>         0.0456
     49 H6          1.2820   -2.9511    5.4011 H         1 <0>         0.0909
     50 H7          2.8942   -2.3372    5.8455 H         1 <0>         0.0792
     51 H8          0.3081   -0.7160    5.7476 H         1 <0>         0.0886
     52 H9          1.1728   -1.2307    7.2167 H         1 <0>         0.1083
     53 H10         1.7148    1.1206    6.6426 H         1 <0>         0.1296
     54 H11         3.1538    0.0821    6.5113 H         1 <0>         0.1275
     55 H12         1.4234    0.8589    4.2731 H         1 <0>         0.4224
     56 H13         3.9816   -0.5708    4.4099 H         1 <0>         0.1282
     57 H14         1.7374    1.5947    2.5992 H         1 <0>         0.0982
     58 H15         2.0879    2.3393    0.2848 H         1 <0>         0.1207
     59 H16         6.4252    1.3329    0.9675 H         1 <0>         0.1390
     60 H17         8.6810    2.2964    0.8119 H         1 <0>         0.1410
     61 H18         9.7292   -0.6324   -2.1397 H         1 <0>         0.1244
     62 H19         7.4768   -1.6028   -1.9772 H         1 <0>         0.1405
     63 H20        11.3725    0.1769   -2.1604 H         1 <0>         0.4064
     64 H21        12.8981    2.3416   -3.7137 H         1 <0>         0.0762
     65 H22        12.0549    3.3284   -2.4923 H         1 <0>         0.1077
     66 H23        13.9446    4.5772   -2.6843 H         1 <0>         0.1168
     67 H24        14.4978    3.4345   -1.4517 H         1 <0>         0.0912
     68 H25        15.1720    3.5182   -4.3991 H         1 <0>         0.1350
     69 H26        16.2676    3.5318   -3.0098 H         1 <0>         0.1344
     70 H27        14.8180    1.2859   -4.1637 H         1 <0>         0.4273
     71 H28        16.0226    0.1370   -2.1756 H         1 <0>         0.1438
     72 H29        15.5385    1.6860   -1.4354 H         1 <0>         0.1439
     73 H30        13.5465   -0.4991   -0.3080 H         1 <0>         0.4160
     74 H31        13.4208   -1.8568    0.9828 H         1 <0>         0.1372
     75 H32        13.3487   -3.7980    2.4959 H         1 <0>         0.1669
     76 H33        14.6765   -6.3406   -0.5012 H         1 <0>         0.1700
     77 H34        14.7848   -4.4916   -2.1237 H         1 <0>         0.1511
     78 H35         3.0488   -2.4141    2.1415 H         1 <0>         0.0753
     79 H36         3.8463   -2.9435    3.6422 H         1 <0>         0.0657
     80 H37         2.2763   -3.6401    3.1752 H         1 <0>         0.0669
     81 H38         2.8745    1.5500    4.6301 H         1 <0>         0.4287
     82 H39        16.4267    1.4406   -3.8736 H         1 <0>         0.4371
@<TRIPOS>BOND
     1    1    2 1
     2    1   46 1
     3    1   47 1
     4    1   48 1
     5    2    7 1
     6    2    3 1
     7    2   45 1
     8    3    4 1
     9    3   49 1
    10    3   50 1
    11    4    5 1
    12    4   51 1
    13    4   52 1
    14    5    6 1
    15    5   53 1
    16    5   54 1
    17    6    7 1
    18    6   55 1
    19    6   81 1
    20    7    8 1
    21    7   56 1
    22    8   13 ar
    23    8    9 ar
    24    9   10 ar
    25    9   57 1
    26   10   11 ar
    27   10   58 1
    28   11   12 ar
    29   11   44 1
    30   12   13 ar
    31   12   15 1
    32   13   14 1
    33   15   16 2
    34   15   17 1
    35   17   22 ar
    36   17   18 ar
    37   18   19 ar
    38   18   59 1
    39   19   20 ar
    40   19   60 1
    41   20   21 ar
    42   20   23 1
    43   21   22 ar
    44   21   61 1
    45   22   62 1
    46   23   24 2
    47   23   25 am
    48   25   26 1
    49   25   63 1
    50   26   27 1
    51   26   33 1
    52   26   28 1
    53   28   29 1
    54   28   64 1
    55   28   65 1
    56   29   30 1
    57   29   66 1
    58   29   67 1
    59   30   31 1
    60   30   68 1
    61   30   69 1
    62   31   32 1
    63   31   70 1
    64   31   82 1
    65   32   33 1
    66   32   71 1
    67   32   72 1
    68   33   34 1
    69   33   35 1
    70   35   36 am
    71   35   73 1
    72   36   37 2
    73   36   38 1
    74   38   43 ar
    75   38   39 ar
    76   39   40 ar
    77   39   74 1
    78   40   41 ar
    79   40   75 1
    80   41   42 ar
    81   42   43 ar
    82   42   76 1
    83   43   77 1
    84   45   78 1
    85   45   79 1
    86   45   80 1
@<TRIPOS>MOLECULE
CHEMBL536485
   83    87     0     0     0
SMALL
USER_CHARGES

@<TRIPOS>ATOM
      1 C1          2.3490   -0.8983    4.6164 C.3       1 <0>        -0.1502
      2 C2          2.5829   -2.1102    3.7123 C.3       1 <0>        -0.0701
      3 C3          2.7833   -3.3601    4.5741 C.3       1 <0>        -0.1277
      4 C4          3.0941   -4.5515    3.6636 C.3       1 <0>        -0.1511
      5 C5          4.3252   -4.2296    2.8138 C.3       1 <0>        -0.0073
      6 N1          4.0611   -3.0411    1.9939 N.4       1 <0>        -0.5053
      7 C6          3.8330   -1.8787    2.8607 C.3       1 <0>         0.0914
      8 C7          3.6404   -0.6492    2.0108 C.ar      1 <0>        -0.1789
      9 C8          3.1746   -0.7744    0.7129 C.ar      1 <0>        -0.0670
     10 C9          2.9939    0.3442   -0.0775 C.ar      1 <0>        -0.1365
     11 C10         3.2779    1.6047    0.4240 C.ar      1 <0>         0.2015
     12 C11         3.7501    1.7400    1.7389 C.ar      1 <0>        -0.1998
     13 C12         3.9240    0.5978    2.5316 C.ar      1 <0>         0.1823
     14 F1          4.3726    0.7158    3.8005 F         1 <0>        -0.1124
     15 C13         4.0552    3.0735    2.2832 C.2       1 <0>         0.4485
     16 O1          3.1823    3.7230    2.8259 O.2       1 <0>        -0.4077
     17 C14         5.4246    3.6234    2.1699 C.ar      1 <0>        -0.1307
     18 C15         6.3979    2.9299    1.4480 C.ar      1 <0>        -0.0709
     19 C16         7.6726    3.4423    1.3422 C.ar      1 <0>        -0.0659
     20 C17         7.9908    4.6545    1.9566 C.ar      1 <0>        -0.1069
     21 C18         7.0181    5.3477    2.6787 C.ar      1 <0>        -0.0936
     22 C19         5.7417    4.8386    2.7799 C.ar      1 <0>        -0.0611
     23 C20         9.3602    5.2048    1.8428 C.2       1 <0>         0.5654
     24 O2         10.2074    4.6011    1.2144 O.2       1 <0>        -0.5136
     25 N2          9.6676    6.3752    2.4360 N.am      1 <0>        -0.7255
     26 C21        11.0230    6.9198    2.3234 C.3       1 <0>         0.1254
     27 H1         11.4252    6.6777    1.3397 H         1 <0>         0.1142
     28 C22        11.9205    6.2795    3.4116 C.3       1 <0>        -0.1399
     29 C23        13.3631    6.5256    3.0585 C.3       1 <0>        -0.1436
     30 C24        13.9359    7.8127    3.6788 C.3       1 <0>        -0.0113
     31 N3         13.0131    8.9657    3.6055 N.4       1 <0>        -0.4994
     32 C25        12.3455    9.0410    2.3286 C.3       1 <0>        -0.0241
     33 C26        10.9709    8.3686    2.4758 C.3       1 <0>         0.1221
     34 H2         10.5690    8.6029    3.4616 H         1 <0>         0.1122
     35 N4         10.0684    8.9168    1.4604 N.am      1 <0>        -0.7223
     36 C27         9.4553   10.0984    1.6710 C.2       1 <0>         0.5728
     37 O3          9.6511   10.7090    2.7032 O.2       1 <0>        -0.5187
     38 C28         8.5426   10.6528    0.6442 C.ar      1 <0>        -0.1050
     39 C29         8.2988    9.9638   -0.5478 C.ar      1 <0>        -0.1427
     40 C30         7.4402   10.5173   -1.4778 C.ar      1 <0>         0.1044
     41 N5          6.8556   11.6771   -1.2532 N.ar      1 <0>        -0.4556
     42 C31         7.0578   12.3591   -0.1435 C.ar      1 <0>         0.1076
     43 C32         7.8966   11.8768    0.8426 C.ar      1 <0>        -0.1093
     44 O4          3.1008    2.7025   -0.3525 O.3       1 <0>        -0.4830
     45 C33         1.3716   -2.3073    2.7986 C.3       1 <0>        -0.1673
     46 H3          2.2103   -0.0083    4.0025 H         1 <0>         0.0635
     47 H4          1.4584   -1.0638    5.2227 H         1 <0>         0.0821
     48 H5          3.2115   -0.7593    5.2681 H         1 <0>         0.0724
     49 H6          3.6143   -3.1997    5.2610 H         1 <0>         0.0856
     50 H7          1.8742   -3.5617    5.1407 H         1 <0>         0.1004
     51 H8          3.2928   -5.4332    4.2729 H         1 <0>         0.1178
     52 H9          2.2419   -4.7434    3.0117 H         1 <0>         0.0922
     53 H10         5.1768   -4.0381    3.4667 H         1 <0>         0.1337
     54 H11         4.5494   -5.0759    2.1645 H         1 <0>         0.1398
     55 H12         4.8542   -2.8631    1.3961 H         1 <0>         0.4316
     56 H13         4.6950   -1.7373    3.5125 H         1 <0>         0.1509
     57 H14         2.9513   -1.7535    0.3155 H         1 <0>         0.1380
     58 H15         2.6308    0.2361   -1.0889 H         1 <0>         0.1602
     59 H16         6.1518    1.9918    0.9728 H         1 <0>         0.1346
     60 H17         8.4256    2.9058    0.7841 H         1 <0>         0.1477
     61 H18         7.2646    6.2855    3.1543 H         1 <0>         0.1333
     62 H19         4.9879    5.3772    3.3349 H         1 <0>         0.1463
     63 H20         8.9915    6.8571    2.9376 H         1 <0>         0.4066
     64 H21        11.6993    6.7301    4.3791 H         1 <0>         0.0771
     65 H22        11.7331    5.2066    3.4548 H         1 <0>         0.1056
     66 H23        13.9561    5.6784    3.4027 H         1 <0>         0.1175
     67 H24        13.4506    6.5919    1.9741 H         1 <0>         0.0919
     68 H25        14.1715    7.6205    4.7256 H         1 <0>         0.1360
     69 H26        14.8582    8.0703    3.1582 H         1 <0>         0.1362
     70 H27        12.3201    8.8785    4.3336 H         1 <0>         0.4266
     71 H28        12.2172   10.0844    2.0404 H         1 <0>         0.1454
     72 H29        12.9333    8.5187    1.5737 H         1 <0>         0.1446
     73 H30         9.9120    8.4294    0.6364 H         1 <0>         0.4155
     74 H31         8.7749    9.0134   -0.7387 H         1 <0>         0.1358
     75 H32         7.2455    9.9927   -2.4015 H         1 <0>         0.1670
     76 H33         6.5580   13.3059   -0.0015 H         1 <0>         0.1714
     77 H34         8.0540   12.4387    1.7514 H         1 <0>         0.1518
     78 H35         2.1972    3.0470   -0.3464 H         1 <0>         0.4164
     79 H36         1.2312   -1.4179    2.1843 H         1 <0>         0.0745
     80 H37         1.5388   -3.1708    2.1548 H         1 <0>         0.0542
     81 H38         0.4818   -2.4737    3.4057 H         1 <0>         0.0894
     82 H39         3.2431   -3.2010    1.4253 H         1 <0>         0.4240
     83 H40        13.5370    9.8154    3.7527 H         1 <0>         0.4392
@<TRIPOS>BOND
     1    1    2 1
     2    1   46 1
     3    1   47 1
     4    1   48 1
     5    2    7 1
     6    2    3 1
     7    2   45 1
     8    3    4 1
     9    3   49 1
    10    3   50 1
    11    4    5 1
    12    4   51 1
    13    4   52 1
    14    5    6 1
    15    5   53 1
    16    5   54 1
    17    6    7 1
    18    6   55 1
    19    6   82 1
    20    7    8 1
    21    7   56 1
    22    8   13 ar
    23    8    9 ar
    24    9   10 ar
    25    9   57 1
    26   10   11 ar
    27   10   58 1
    28   11   12 ar
    29   11   44 1
    30   12   13 ar
    31   12   15 1
    32   13   14 1
    33   15   16 2
    34   15   17 1
    35   17   22 ar
    36   17   18 ar
    37   18   19 ar
    38   18   59 1
    39   19   20 ar
    40   19   60 1
    41   20   21 ar
    42   20   23 1
    43   21   22 ar
    44   21   61 1
    45   22   62 1
    46   23   24 2
    47   23   25 am
    48   25   26 1
    49   25   63 1
    50   26   27 1
    51   26   33 1
    52   26   28 1
    53   28   29 1
    54   28   64 1
    55   28   65 1
    56   29   30 1
    57   29   66 1
    58   29   67 1
    59   30   31 1
    60   30   68 1
    61   30   69 1
    62   31   32 1
    63   31   70 1
    64   31   83 1
    65   32   33 1
    66   32   71 1
    67   32   72 1
    68   33   34 1
    69   33   35 1
    70   35   36 am
    71   35   73 1
    72   36   37 2
    73   36   38 1
    74   38   43 ar
    75   38   39 ar
    76   39   40 ar
    77   39   74 1
    78   40   41 ar
    79   40   75 1
    80   41   42 ar
    81   42   43 ar
    82   42   76 1
    83   43   77 1
    84   44   78 1
    85   45   79 1
    86   45   80 1
    87   45   81 1
@<TRIPOS>MOLECULE
CHEMBL536485
   82    86     0     0     0
SMALL
USER_CHARGES

@<TRIPOS>ATOM
      1 C1         -0.0758    4.6191    0.1123 C.3       1 <0>        -0.1440
      2 C2         -0.6501    5.7597    0.9550 C.3       1 <0>        -0.0684
      3 C3         -1.4204    6.7260    0.0506 C.3       1 <0>        -0.1276
      4 C4         -1.9241    7.9037    0.8901 C.3       1 <0>        -0.1478
      5 C5         -0.7353    8.5771    1.5791 C.3       1 <0>        -0.0060
      6 N1         -0.0566    7.6091    2.4490 N.4       1 <0>        -0.5030
      7 C6          0.4914    6.5126    1.6417 C.3       1 <0>         0.1177
      8 C7          1.2527    5.5653    2.5328 C.ar      1 <0>        -0.3224
      9 C8          0.9343    5.4778    3.8775 C.ar      1 <0>        -0.0495
     10 C9          1.6243    4.6140    4.7060 C.ar      1 <0>        -0.2305
     11 C10         2.6436    3.8252    4.1962 C.ar      1 <0>         0.3284
     12 C11         2.9721    3.9078    2.8341 C.ar      1 <0>        -0.3319
     13 C12         2.2609    4.7842    2.0037 C.ar      1 <0>         0.2107
     14 F1          2.5642    4.8685    0.6899 F         1 <0>        -0.1449
     15 C13         4.0527    3.0751    2.2805 C.2       1 <0>         0.4718
     16 O1          3.8194    1.9382    1.9183 O.2       1 <0>        -0.4357
     17 C14         5.4230    3.6221    2.1648 C.ar      1 <0>        -0.1053
     18 C15         6.4210    2.8774    1.5332 C.ar      1 <0>        -0.0737
     19 C16         7.6966    3.3870    1.4253 C.ar      1 <0>        -0.0654
     20 C17         7.9912    4.6476    1.9472 C.ar      1 <0>        -0.1299
     21 C18         6.9938    5.3920    2.5791 C.ar      1 <0>        -0.1001
     22 C19         5.7166    4.8852    2.6822 C.ar      1 <0>        -0.0679
     23 C20         9.3616    5.1948    1.8311 C.2       1 <0>         0.5707
     24 O2         10.2302    4.5466    1.2813 O.2       1 <0>        -0.5192
     25 N2          9.6461    6.4120    2.3351 N.am      1 <0>        -0.7298
     26 C21        11.0024    6.9536    2.2201 C.3       1 <0>         0.1252
     27 H1         11.4363    6.6338    1.2728 H         1 <0>         0.1124
     28 C22        11.8674    6.4105    3.3849 C.3       1 <0>        -0.1416
     29 C23        13.3195    6.6355    3.0578 C.3       1 <0>        -0.1435
     30 C24        13.8681    7.9726    3.5874 C.3       1 <0>        -0.0104
     31 N3         12.9441    9.1101    3.3904 N.4       1 <0>        -0.4990
     32 C25        12.3168    9.0760    2.0916 C.3       1 <0>        -0.0237
     33 C26        10.9406    8.4097    2.2509 C.3       1 <0>         0.1234
     34 H2         10.5070    8.7220    3.2009 H         1 <0>         0.1118
     35 N4         10.0686    8.8670    1.1661 N.am      1 <0>        -0.7195
     36 C27         9.4451   10.0582    1.2594 C.2       1 <0>         0.5723
     37 O3          9.6062   10.7529    2.2432 O.2       1 <0>        -0.5219
     38 C28         8.5634   10.5207    0.1624 C.ar      1 <0>        -0.1023
     39 C29         8.3597    9.7344   -0.9757 C.ar      1 <0>        -0.1395
     40 C30         7.5288   10.2042   -1.9745 C.ar      1 <0>         0.1045
     41 N5          6.9335   11.3751   -1.8646 N.ar      1 <0>        -0.4580
     42 C31         7.0982   12.1473   -0.8092 C.ar      1 <0>         0.1034
     43 C32         7.9072   11.7530    0.2390 C.ar      1 <0>        -0.1108
     44 O4          3.3210    2.9777    5.0101 O.3       1 <0>        -0.6576
     45 C33        -1.5943    5.1871    2.0141 C.3       1 <0>        -0.1608
     46 H3          0.4756    3.9338    0.7560 H         1 <0>         0.0735
     47 H4         -0.8895    4.0832   -0.3765 H         1 <0>         0.0688
     48 H5          0.5955    5.0277   -0.6429 H         1 <0>         0.0645
     49 H6         -0.7607    7.0943   -0.7350 H         1 <0>         0.0791
     50 H7         -2.2688    6.2084   -0.3971 H         1 <0>         0.0913
     51 H8         -2.4255    8.6236    0.2433 H         1 <0>         0.1084
     52 H9         -2.6236    7.5409    1.6432 H         1 <0>         0.0888
     53 H10        -0.0366    8.9397    0.8252 H         1 <0>         0.1267
     54 H11        -1.0904    9.4162    2.1775 H         1 <0>         0.1291
     55 H12         0.6934    8.0697    2.9423 H         1 <0>         0.4274
     56 H13         1.1640    6.9191    0.8864 H         1 <0>         0.1275
     57 H14         0.1412    6.0895    4.2816 H         1 <0>         0.0985
     58 H15         1.3690    4.5535    5.7536 H         1 <0>         0.1203
     59 H16         6.1933    1.9019    1.1297 H         1 <0>         0.1439
     60 H17         8.4687    2.8109    0.9370 H         1 <0>         0.1428
     61 H18         7.2220    6.3672    2.9832 H         1 <0>         0.1229
     62 H19         4.9438    5.4631    3.1671 H         1 <0>         0.1373
     63 H20         8.9528    6.9294    2.7739 H         1 <0>         0.4055
     64 H21        11.6143    6.9379    4.3046 H         1 <0>         0.0760
     65 H22        11.6824    5.3437    3.5106 H         1 <0>         0.1080
     66 H23        13.9044    5.8230    3.4890 H         1 <0>         0.1173
     67 H24        13.4410    6.6127    1.9748 H         1 <0>         0.0915
     68 H25        14.0712    7.8687    4.6532 H         1 <0>         0.1352
     69 H26        14.8054    8.1921    3.0762 H         1 <0>         0.1346
     70 H27        12.2288    9.0790    4.1014 H         1 <0>         0.4270
     71 H28        12.1940   10.0913    1.7144 H         1 <0>         0.1435
     72 H29        12.9299    8.4969    1.4010 H         1 <0>         0.1443
     73 H30         9.9400    8.3125    0.3807 H         1 <0>         0.4164
     74 H31         8.8448    8.7744   -1.0727 H         1 <0>         0.1381
     75 H32         7.3652    9.6042   -2.8574 H         1 <0>         0.1675
     76 H33         6.5909   13.0996   -0.7615 H         1 <0>         0.1690
     77 H34         8.0340   12.3887    1.1028 H         1 <0>         0.1506
     78 H35        -1.0445    4.5011    2.6583 H         1 <0>         0.0834
     79 H36        -2.0031    6.0002    2.6141 H         1 <0>         0.0453
     80 H37        -2.4081    4.6523    1.5243 H         1 <0>         0.0764
     81 H38        -0.7164    7.2372    3.1158 H         1 <0>         0.4220
     82 H39        13.4601    9.9722    3.4833 H         1 <0>         0.4370
@<TRIPOS>BOND
     1    1    2 1
     2    1   46 1
     3    1   47 1
     4    1   48 1
     5    2    7 1
     6    2    3 1
     7    2   45 1
     8    3    4 1
     9    3   49 1
    10    3   50 1
    11    4    5 1
    12    4   51 1
    13    4   52 1
    14    5    6 1
    15    5   53 1
    16    5   54 1
    17    6    7 1
    18    6   55 1
    19    6   81 1
    20    7    8 1
    21    7   56 1
    22    8   13 ar
    23    8    9 ar
    24    9   10 ar
    25    9   57 1
    26   10   11 ar
    27   10   58 1
    28   11   12 ar
    29   11   44 1
    30   12   13 ar
    31   12   15 1
    32   13   14 1
    33   15   16 2
    34   15   17 1
    35   17   22 ar
    36   17   18 ar
    37   18   19 ar
    38   18   59 1
    39   19   20 ar
    40   19   60 1
    41   20   21 ar
    42   20   23 1
    43   21   22 ar
    44   21   61 1
    45   22   62 1
    46   23   24 2
    47   23   25 am
    48   25   26 1
    49   25   63 1
    50   26   27 1
    51   26   33 1
    52   26   28 1
    53   28   29 1
    54   28   64 1
    55   28   65 1
    56   29   30 1
    57   29   66 1
    58   29   67 1
    59   30   31 1
    60   30   68 1
    61   30   69 1
    62   31   32 1
    63   31   70 1
    64   31   82 1
    65   32   33 1
    66   32   71 1
    67   32   72 1
    68   33   34 1
    69   33   35 1
    70   35   36 am
    71   35   73 1
    72   36   37 2
    73   36   38 1
    74   38   43 ar
    75   38   39 ar
    76   39   40 ar
    77   39   74 1
    78   40   41 ar
    79   40   75 1
    80   41   42 ar
    81   42   43 ar
    82   42   76 1
    83   43   77 1
    84   45   78 1
    85   45   79 1
    86   45   80 1
@<TRIPOS>MOLECULE
CHEMBL210940
   73    78     0     0     0
SMALL
USER_CHARGES

@<TRIPOS>ATOM
      1 C1         -0.0187    1.5258    0.0104 C.3       1 <0>        -0.1442
      2 C2          0.0021   -0.0041    0.0020 C.3       1 <0>        -0.0286
      3 C3          0.7421   -0.5109    1.2415 C.3       1 <0>        -0.1479
      4 C4         -1.4333   -0.5336    0.0129 C.3       1 <0>        -0.0480
      5 C5         -2.1387   -0.0476    1.2528 C.2       1 <0>        -0.1548
      6 C6         -2.1781   -0.7014    2.5002 C.2       1 <0>        -0.1944
      7 C7         -2.9095    0.0649    3.3346 C.2       1 <0>        -0.0163
      8 N1         -3.3230    1.1679    2.6481 N.pl3     1 <0>        -0.5614
      9 H1         -3.8659    1.8868    3.0077 H         1 <0>         0.4142
     10 C8         -2.8432    1.0958    1.3739 C.2       1 <0>        -0.0143
     11 C9          0.7182   -0.4975   -1.2568 C.3       1 <0>        -0.0770
     12 C10         2.1085    0.0900   -1.3399 C.ar      1 <0>        -0.1222
     13 C11         3.2103   -0.0015   -0.5234 C.ar      1 <0>        -0.0447
     14 C12         4.3853    0.6677   -0.8662 C.ar      1 <0>        -0.0852
     15 C13         4.4299    1.4243   -2.0363 C.ar      1 <0>        -0.0649
     16 C14         3.3219    1.5109   -2.8489 C.ar      1 <0>        -0.1387
     17 C15         2.1456    0.8426   -2.5084 C.ar      1 <0>         0.1662
     18 N2          0.9141    0.7806   -3.1603 N.am      1 <0>        -0.6618
     19 C16         0.0252    0.0207   -2.4989 C.2       1 <0>         0.5345
     20 O1         -1.1179   -0.2073   -2.8341 O.2       1 <0>        -0.4817
     21 C17         5.5796    0.5754    0.0091 C.ar      1 <0>        -0.0322
     22 C18         6.7577    1.2477   -0.3253 C.ar      1 <0>        -0.0993
     23 C19         7.8474    1.1289    0.5274 C.ar      1 <0>         0.0698
     24 C20         7.7292    0.3529    1.6726 C.ar      1 <0>         0.0186
     25 N3          6.6018   -0.2686    1.9572 N.ar      1 <0>        -0.4371
     26 C21         5.5417   -0.1787    1.1803 C.ar      1 <0>         0.0841
     27 O2          9.0152    1.7640    0.2442 O.3       1 <0>        -0.3229
     28 C22        10.0889    1.5916    1.1712 C.3       1 <0>         0.0264
     29 C23        11.3108    2.3753    0.6879 C.3       1 <0>         0.0434
     30 H2         11.5603    2.0690   -0.3280 H         1 <0>         0.1528
     31 C24        12.4968    2.0917    1.6119 C.3       1 <0>        -0.0556
     32 C25        13.7302    2.7648    1.0672 C.2       1 <0>        -0.2376
     33 C26        14.6620    2.2067    0.2783 C.2       1 <0>         0.1040
     34 N4         15.6349    3.1231   -0.0149 N.pl3     1 <0>        -0.5845
     35 H3         16.4125    2.9523   -0.5689 H         1 <0>         0.4265
     36 C27        15.3455    4.3239    0.5936 C.ar      1 <0>         0.0987
     37 C28        14.1364    4.1540    1.2929 C.ar      1 <0>        -0.1171
     38 C29        13.5898    5.2207    2.0085 C.ar      1 <0>        -0.1141
     39 C30        14.2311    6.4274    2.0230 C.ar      1 <0>        -0.1191
     40 C31        15.4218    6.6013    1.3314 C.ar      1 <0>        -0.0932
     41 C32        15.9837    5.5593    0.6263 C.ar      1 <0>        -0.1110
     42 N5         11.0090    3.8129    0.7057 N.4       1 <0>        -0.6362
     43 H4          1.0039    1.9031    0.0027 H         1 <0>         0.0534
     44 H5         -0.5459    1.8868   -0.8726 H         1 <0>         0.0473
     45 H6         -0.5289    1.8773    0.9072 H         1 <0>         0.0696
     46 H7          0.2319   -0.1594    2.1383 H         1 <0>         0.0734
     47 H8          0.7568   -1.6008    1.2356 H         1 <0>         0.0584
     48 H9          1.7647   -0.1336    1.2338 H         1 <0>         0.0557
     49 H10        -1.9605   -0.1726   -0.8702 H         1 <0>         0.0827
     50 H11        -1.4185   -1.6235    0.0069 H         1 <0>         0.0705
     51 H12        -1.7091   -1.6434    2.7433 H         1 <0>         0.1332
     52 H13        -3.1299   -0.1569    4.3683 H         1 <0>         0.1612
     53 H14        -3.0018    1.8273    0.5953 H         1 <0>         0.1574
     54 H15         0.7602   -1.5866   -1.2691 H         1 <0>         0.1282
     55 H16         3.1664   -0.5896    0.3814 H         1 <0>         0.1399
     56 H17         5.3370    1.9447   -2.3062 H         1 <0>         0.1320
     57 H18         3.3634    2.0990   -3.7537 H         1 <0>         0.1329
     58 H19         0.7213    1.2346   -3.9955 H         1 <0>         0.4156
     59 H20         6.8195    1.8439   -1.2236 H         1 <0>         0.1477
     60 H21         8.5731    0.2566    2.3396 H         1 <0>         0.1572
     61 H22         4.6351   -0.6992    1.4514 H         1 <0>         0.1663
     62 H23         9.7854    1.9599    2.1512 H         1 <0>         0.0919
     63 H24        10.3408    0.5335    1.2427 H         1 <0>         0.1139
     64 H25        12.2819    2.4783    2.6081 H         1 <0>         0.0998
     65 H26        12.6646    1.0161    1.6680 H         1 <0>         0.1219
     66 H27        14.6463    1.1854   -0.0726 H         1 <0>         0.1792
     67 H28        12.6632    5.0929    2.5484 H         1 <0>         0.1149
     68 H29        13.8078    7.2524    2.5767 H         1 <0>         0.1311
     69 H30        15.9165    7.5611    1.3518 H         1 <0>         0.1352
     70 H31        16.9100    5.7049    0.0904 H         1 <0>         0.1294
     71 H32        11.8148    4.3297    0.3870 H         1 <0>         0.4380
     72 H33        10.2269    3.9999    0.0964 H         1 <0>         0.4391
     73 H34        10.7780    4.0964    1.6461 H         1 <0>         0.4299
@<TRIPOS>BOND
     1    1    2 1
     2    1   43 1
     3    1   44 1
     4    1   45 1
     5    2    3 1
     6    2    4 1
     7    2   11 1
     8    3   46 1
     9    3   47 1
    10    3   48 1
    11    4    5 1
    12    4   49 1
    13    4   50 1
    14    5   10 2
    15    5    6 1
    16    6    7 2
    17    6   51 1
    18    7    8 1
    19    7   52 1
    20    8    9 1
    21    8   10 1
    22   10   53 1
    23   11   19 1
    24   11   12 1
    25   11   54 1
    26   12   17 ar
    27   12   13 ar
    28   13   14 ar
    29   13   55 1
    30   14   15 ar
    31   14   21 1
    32   15   16 ar
    33   15   56 1
    34   16   17 ar
    35   16   57 1
    36   17   18 1
    37   18   19 am
    38   18   58 1
    39   19   20 2
    40   21   26 ar
    41   21   22 ar
    42   22   23 ar
    43   22   59 1
    44   23   24 ar
    45   23   27 1
    46   24   25 ar
    47   24   60 1
    48   25   26 ar
    49   26   61 1
    50   27   28 1
    51   28   29 1
    52   28   62 1
    53   28   63 1
    54   29   30 1
    55   29   31 1
    56   29   42 1
    57   31   32 1
    58   31   64 1
    59   31   65 1
    60   32   37 1
    61   32   33 2
    62   33   34 1
    63   33   66 1
    64   34   35 1
    65   34   36 1
    66   36   41 ar
    67   36   37 ar
    68   37   38 ar
    69   38   39 ar
    70   38   67 1
    71   39   40 ar
    72   39   68 1
    73   40   41 ar
    74   40   69 1
    75   41   70 1
    76   42   71 1
    77   42   72 1
    78   42   73 1
@<TRIPOS>MOLECULE
CHEMBL210940
   73    78     0     0     0
SMALL
USER_CHARGES

@<TRIPOS>ATOM
      1 C1         -0.0187    1.5258    0.0104 C.3       1 <0>        -0.1492
      2 C2          0.0021   -0.0041    0.0020 C.3       1 <0>        -0.0288
      3 C3          0.7421   -0.5109    1.2415 C.3       1 <0>        -0.1432
      4 C4         -1.4333   -0.5336    0.0129 C.3       1 <0>        -0.0480
      5 C5         -2.1387   -0.0476    1.2528 C.2       1 <0>        -0.1551
      6 C6         -2.1781   -0.7014    2.5002 C.2       1 <0>        -0.1936
      7 C7         -2.9095    0.0649    3.3346 C.2       1 <0>        -0.0160
      8 N1         -3.3230    1.1679    2.6481 N.pl3     1 <0>        -0.5613
      9 H1         -3.8659    1.8868    3.0077 H         1 <0>         0.4143
     10 C8         -2.8432    1.0958    1.3739 C.2       1 <0>        -0.0151
     11 C9          0.7182   -0.4975   -1.2568 C.3       1 <0>        -0.0766
     12 C10         2.1673   -0.0674   -1.2448 C.ar      1 <0>        -0.1226
     13 C11         2.7744    1.1656   -1.2297 C.ar      1 <0>        -0.0449
     14 C12         4.1666    1.2533   -1.2218 C.ar      1 <0>        -0.0857
     15 C13         4.9296    0.0866   -1.2293 C.ar      1 <0>        -0.0646
     16 C14         4.3138   -1.1447   -1.2445 C.ar      1 <0>        -0.1387
     17 C15         2.9217   -1.2352   -1.2524 C.ar      1 <0>         0.1672
     18 N2          2.0834   -2.3499   -1.2680 N.am      1 <0>        -0.6617
     19 C16         0.7837   -2.0098   -1.2715 C.2       1 <0>         0.5345
     20 O1         -0.1601   -2.7716   -1.2841 O.2       1 <0>        -0.4808
     21 C17         4.8310    2.5797   -1.2059 C.ar      1 <0>        -0.0317
     22 C18         6.2247    2.6749   -1.2038 C.ar      1 <0>        -0.0994
     23 C19         6.7976    3.9399   -1.1887 C.ar      1 <0>         0.0701
     24 C20         5.9724    5.0564   -1.1763 C.ar      1 <0>         0.0183
     25 N3          4.6601    4.9297   -1.1784 N.ar      1 <0>        -0.4374
     26 C21         4.0744    3.7499   -1.1988 C.ar      1 <0>         0.0836
     27 O2          8.1492    4.0832   -1.1855 O.3       1 <0>        -0.3228
     28 C22         8.6600    5.4177   -1.1697 C.3       1 <0>         0.0264
     29 C23        10.1895    5.3783   -1.1684 C.3       1 <0>         0.0434
     30 H2         10.5366    4.7701   -0.3331 H         1 <0>         0.1529
     31 C24        10.7362    6.8001   -1.0258 C.3       1 <0>        -0.0555
     32 C25        12.2373    6.7510   -0.9012 C.2       1 <0>        -0.2375
     33 C26        12.9438    6.7408    0.2401 C.2       1 <0>         0.1039
     34 N4         14.2823    6.6924   -0.0401 N.pl3     1 <0>        -0.5846
     35 H3         14.9902    6.6764    0.6229 H         1 <0>         0.4265
     36 C27        14.4746    6.6697   -1.4033 C.ar      1 <0>         0.0988
     37 C28        13.2018    6.6990   -2.0025 C.ar      1 <0>        -0.1171
     38 C29        13.0862    6.6792   -3.3935 C.ar      1 <0>        -0.1140
     39 C30        14.2115    6.6278   -4.1671 C.ar      1 <0>        -0.1191
     40 C31        15.4691    6.5945   -3.5809 C.ar      1 <0>        -0.0932
     41 C32        15.6065    6.6226   -2.2101 C.ar      1 <0>        -0.1110
     42 N5         10.6653    4.7949   -2.4299 N.4       1 <0>        -0.6363
     43 H4          1.0039    1.9031    0.0027 H         1 <0>         0.0575
     44 H5         -0.5459    1.8868   -0.8726 H         1 <0>         0.0578
     45 H6         -0.5289    1.8773    0.9072 H         1 <0>         0.0703
     46 H7          0.2319   -0.1594    2.1383 H         1 <0>         0.0728
     47 H8          0.7568   -1.6008    1.2356 H         1 <0>         0.0479
     48 H9          1.7647   -0.1336    1.2338 H         1 <0>         0.0518
     49 H10        -1.9605   -0.1726   -0.8702 H         1 <0>         0.0671
     50 H11        -1.4185   -1.6235    0.0069 H         1 <0>         0.0858
     51 H12        -1.7091   -1.6434    2.7433 H         1 <0>         0.1310
     52 H13        -3.1299   -0.1569    4.3683 H         1 <0>         0.1610
     53 H14        -3.0018    1.8273    0.5953 H         1 <0>         0.1595
     54 H15         0.2154   -0.1282   -2.1506 H         1 <0>         0.1274
     55 H16         2.1752    2.0642   -1.2242 H         1 <0>         0.1392
     56 H17         6.0078    0.1488   -1.2236 H         1 <0>         0.1320
     57 H18         4.9111   -2.0445   -1.2506 H         1 <0>         0.1331
     58 H19         2.4024   -3.2659   -1.2757 H         1 <0>         0.4159
     59 H20         6.8407    1.7878   -1.2132 H         1 <0>         0.1478
     60 H21         6.4119    6.0429   -1.1646 H         1 <0>         0.1572
     61 H22         2.9961    3.6888   -1.2048 H         1 <0>         0.1659
     62 H23         8.3110    5.9509   -2.0540 H         1 <0>         0.0920
     63 H24         8.3091    5.9305   -0.2742 H         1 <0>         0.1138
     64 H25        10.4635    7.3841   -1.9049 H         1 <0>         0.0998
     65 H26        10.3127    7.2646   -0.1354 H         1 <0>         0.1217
     66 H27        12.5188    6.7672    1.2326 H         1 <0>         0.1791
     67 H28        12.1108    6.7042   -3.8566 H         1 <0>         0.1149
     68 H29        14.1216    6.6125   -5.2433 H         1 <0>         0.1312
     69 H30        16.3491    6.5532   -4.2056 H         1 <0>         0.1352
     70 H31        16.5895    6.5951   -1.7635 H         1 <0>         0.1294
     71 H32        11.6740    4.7689   -2.4291 H         1 <0>         0.4380
     72 H33        10.3048    3.8572   -2.5239 H         1 <0>         0.4392
     73 H34        10.3440    5.3579   -3.2031 H         1 <0>         0.4299
@<TRIPOS>BOND
     1    1    2 1
     2    1   43 1
     3    1   44 1
     4    1   45 1
     5    2    3 1
     6    2    4 1
     7    2   11 1
     8    3   46 1
     9    3   47 1
    10    3   48 1
    11    4    5 1
    12    4   49 1
    13    4   50 1
    14    5   10 2
    15    5    6 1
    16    6    7 2
    17    6   51 1
    18    7    8 1
    19    7   52 1
    20    8    9 1
    21    8   10 1
    22   10   53 1
    23   11   19 1
    24   11   12 1
    25   11   54 1
    26   12   17 ar
    27   12   13 ar
    28   13   14 ar
    29   13   55 1
    30   14   15 ar
    31   14   21 1
    32   15   16 ar
    33   15   56 1
    34   16   17 ar
    35   16   57 1
    36   17   18 1
    37   18   19 am
    38   18   58 1
    39   19   20 2
    40   21   26 ar
    41   21   22 ar
    42   22   23 ar
    43   22   59 1
    44   23   24 ar
    45   23   27 1
    46   24   25 ar
    47   24   60 1
    48   25   26 ar
    49   26   61 1
    50   27   28 1
    51   28   29 1
    52   28   62 1
    53   28   63 1
    54   29   30 1
    55   29   31 1
    56   29   42 1
    57   31   32 1
    58   31   64 1
    59   31   65 1
    60   32   37 1
    61   32   33 2
    62   33   34 1
    63   33   66 1
    64   34   35 1
    65   34   36 1
    66   36   41 ar
    67   36   37 ar
    68   37   38 ar
    69   38   39 ar
    70   38   67 1
    71   39   40 ar
    72   39   68 1
    73   40   41 ar
    74   40   69 1
    75   41   70 1
    76   42   71 1
    77   42   72 1
    78   42   73 1
@<TRIPOS>MOLECULE
CHEMBL488428
   72    78     0     0     0
SMALL
USER_CHARGES

@<TRIPOS>ATOM
      1 C1         -0.0167    1.3792    0.0096 C.ar      1 <0>        -0.1099
      2 C2          1.1686    2.0925    0.0021 C.ar      1 <0>        -0.1111
      3 C3          2.3774    1.4271   -0.0130 C.ar      1 <0>        -0.1030
      4 C4          2.4026    0.0331   -0.0207 C.ar      1 <0>        -0.0481
      5 C5          1.2048   -0.6804   -0.0131 C.ar      1 <0>        -0.1004
      6 C6          0.0021   -0.0041    0.0020 C.ar      1 <0>        -0.1221
      7 C7          3.6977   -0.6874   -0.0375 C.ar      1 <0>        -0.1091
      8 C8          4.6806   -0.3453   -0.9625 C.ar      1 <0>         0.0162
      9 C9          5.8811   -1.0557   -0.9345 C.ar      1 <0>        -0.1980
     10 C10         6.0604   -2.0873    0.0193 C.ar      1 <0>         0.2202
     11 C11         7.3333   -2.8108    0.0176 C.2       1 <0>        -0.2026
     12 C12         8.2816   -2.4813   -0.8749 C.2       1 <0>         0.1436
     13 N1          8.1107   -1.4880   -1.7936 N.am      1 <0>        -0.6308
     14 H1          8.8309   -1.2936   -2.4136 H         1 <0>         0.4232
     15 C13         6.9738   -0.7679   -1.8686 C.2       1 <0>         0.5517
     16 O1          6.8556    0.1116   -2.7027 O.2       1 <0>        -0.5117
     17 N2          5.0960   -2.3805    0.8833 N.ar      1 <0>        -0.4694
     18 C14         3.9485   -1.7214    0.8861 C.ar      1 <0>         0.2069
     19 C15         2.9057   -2.0818    1.8744 C.ar      1 <0>        -0.0135
     20 C16         2.0776   -1.0955    2.4098 C.ar      1 <0>        -0.0800
     21 C17         1.1080   -1.4374    3.3301 C.ar      1 <0>        -0.1004
     22 C18         0.9565   -2.7555    3.7219 C.ar      1 <0>        -0.1490
     23 C19         1.7748   -3.7384    3.1945 C.ar      1 <0>        -0.0974
     24 C20         2.7442   -3.4097    2.2691 C.ar      1 <0>        -0.0738
     25 C21        -0.1041   -3.1222    4.7279 C.3       1 <0>         0.0430
     26 N3         -1.3543   -3.4428    4.0264 N.4       1 <0>        -0.3833
     27 C22        -1.8526   -2.2425    3.3442 C.3       1 <0>        -0.0118
     28 C23        -3.1108   -2.5903    2.5458 C.3       1 <0>        -0.1372
     29 C24        -4.1847   -3.1195    3.5007 C.3       1 <0>         0.0003
     30 C25        -3.6277   -4.3266    4.2610 C.3       1 <0>        -0.1394
     31 C26        -2.3504   -3.9145    4.9959 C.3       1 <0>        -0.0037
     32 C27        -5.3989   -3.5373    2.7118 C.2       1 <0>         0.2262
     33 N4         -6.6209   -3.0299    2.8517 N.2       1 <0>        -0.5257
     34 H2         -7.0728   -5.1184    0.6105 H         1 <0>         0.4442
     35 C28        -7.4462   -3.6177    2.0086 C.2       1 <0>         0.3670
     36 N5         -6.7371   -4.5300    1.3048 N.pl3     1 <0>        -0.4775
     37 N6         -5.4170   -4.4519    1.7776 N.2       1 <0>        -0.3040
     38 C29        -8.8894   -3.3314    1.8591 C.2       1 <0>        -0.1535
     39 C30        -9.5058   -2.3427    2.6601 C.2       1 <0>         0.0142
     40 C31       -10.8355   -2.0988    2.5026 C.2       1 <0>        -0.2261
     41 C32       -11.5661   -2.8319    1.5504 C.2       1 <0>         0.5142
     42 O2        -12.7584   -2.6170    1.4049 O.2       1 <0>        -0.5241
     43 N7        -10.9594   -3.7684    0.7985 N.am      1 <0>        -0.5943
     44 H3        -11.4766   -4.2659    0.1459 H         1 <0>         0.4258
     45 C33        -9.6411   -4.0219    0.9348 C.2       1 <0>         0.1815
     46 H4         -0.9603    1.9042    0.0260 H         1 <0>         0.1262
     47 H5          1.1477    3.1723    0.0078 H         1 <0>         0.1302
     48 H6          3.3021    1.9851   -0.0192 H         1 <0>         0.1281
     49 H7          1.2182   -1.7603   -0.0191 H         1 <0>         0.1198
     50 H8         -0.9264   -0.5557    0.0079 H         1 <0>         0.1221
     51 H9          4.5186    0.4455   -1.6799 H         1 <0>         0.1561
     52 H10         7.5087   -3.6039    0.7294 H         1 <0>         0.1603
     53 H11         9.2154   -3.0236   -0.8643 H         1 <0>         0.1741
     54 H12         2.1952   -0.0661    2.1049 H         1 <0>         0.1433
     55 H13         0.4664   -0.6745    3.7456 H         1 <0>         0.1353
     56 H14         1.6520   -4.7656    3.5045 H         1 <0>         0.1356
     57 H15         3.3793   -4.1785    1.8544 H         1 <0>         0.1423
     58 H16         0.2234   -3.9892    5.3015 H         1 <0>         0.1390
     59 H17        -0.2710   -2.2823    5.4023 H         1 <0>         0.1377
     60 H18        -2.0917   -1.4779    4.0834 H         1 <0>         0.1332
     61 H19        -1.0861   -1.8652    2.6674 H         1 <0>         0.1365
     62 H20        -3.4802   -1.6974    2.0415 H         1 <0>         0.1152
     63 H21        -2.8728   -3.3547    1.8061 H         1 <0>         0.0955
     64 H22        -4.4599   -2.3380    4.2089 H         1 <0>         0.1175
     65 H23        -4.3667   -4.6747    4.9827 H         1 <0>         0.1163
     66 H24        -3.4004   -5.1270    3.5569 H         1 <0>         0.0960
     67 H25        -1.9514   -4.7715    5.5384 H         1 <0>         0.1358
     68 H26        -2.5789   -3.1142    5.6998 H         1 <0>         0.1339
     69 H27        -8.9298   -1.7892    3.3869 H         1 <0>         0.1521
     70 H28       -11.3259   -1.3481    3.1046 H         1 <0>         0.1621
     71 H29        -9.1732   -4.7748    0.3178 H         1 <0>         0.1654
     72 H30        -1.1805   -4.1666    3.3452 H         1 <0>         0.4232
@<TRIPOS>BOND
     1    1    6 ar
     2    1    2 ar
     3    1   46 1
     4    2    3 ar
     5    2   47 1
     6    3    4 ar
     7    3   48 1
     8    4    5 ar
     9    4    7 1
    10    5    6 ar
    11    5   49 1
    12    6   50 1
    13    7   18 ar
    14    7    8 ar
    15    8    9 ar
    16    8   51 1
    17    9   15 1
    18    9   10 ar
    19   10   11 1
    20   10   17 ar
    21   11   12 2
    22   11   52 1
    23   12   13 1
    24   12   53 1
    25   13   14 1
    26   13   15 am
    27   15   16 2
    28   17   18 ar
    29   18   19 1
    30   19   24 ar
    31   19   20 ar
    32   20   21 ar
    33   20   54 1
    34   21   22 ar
    35   21   55 1
    36   22   23 ar
    37   22   25 1
    38   23   24 ar
    39   23   56 1
    40   24   57 1
    41   25   26 1
    42   25   58 1
    43   25   59 1
    44   26   31 1
    45   26   27 1
    46   26   72 1
    47   27   28 1
    48   27   60 1
    49   27   61 1
    50   28   29 1
    51   28   62 1
    52   28   63 1
    53   29   30 1
    54   29   64 1
    55   29   32 1
    56   30   31 1
    57   30   65 1
    58   30   66 1
    59   31   67 1
    60   31   68 1
    61   32   33 1
    62   32   37 2
    63   33   35 2
    64   34   36 1
    65   35   38 1
    66   35   36 1
    67   36   37 1
    68   38   45 2
    69   38   39 1
    70   39   40 2
    71   39   69 1
    72   40   41 1
    73   40   70 1
    74   41   42 2
    75   41   43 am
    76   43   44 1
    77   43   45 1
    78   45   71 1
@<TRIPOS>MOLECULE
CHEMBL488428
   72    78     0     0     0
SMALL
USER_CHARGES

@<TRIPOS>ATOM
      1 C1         -0.0167    1.3792    0.0096 C.ar      1 <0>        -0.1094
      2 C2          1.1686    2.0925    0.0021 C.ar      1 <0>        -0.1106
      3 C3          2.3774    1.4271   -0.0130 C.ar      1 <0>        -0.1027
      4 C4          2.4026    0.0331   -0.0207 C.ar      1 <0>        -0.0484
      5 C5          1.2048   -0.6804   -0.0131 C.ar      1 <0>        -0.1012
      6 C6          0.0021   -0.0041    0.0020 C.ar      1 <0>        -0.1225
      7 C7          3.6977   -0.6874   -0.0375 C.ar      1 <0>        -0.1091
      8 C8          4.6806   -0.3453   -0.9625 C.ar      1 <0>         0.0164
      9 C9          5.8811   -1.0557   -0.9345 C.ar      1 <0>        -0.1973
     10 C10         6.0604   -2.0873    0.0193 C.ar      1 <0>         0.2204
     11 C11         7.3333   -2.8108    0.0176 C.2       1 <0>        -0.2033
     12 C12         8.2816   -2.4813   -0.8749 C.2       1 <0>         0.1444
     13 N1          8.1107   -1.4880   -1.7936 N.am      1 <0>        -0.6307
     14 H1          8.8309   -1.2936   -2.4136 H         1 <0>         0.4234
     15 C13         6.9738   -0.7679   -1.8686 C.2       1 <0>         0.5515
     16 O1          6.8556    0.1116   -2.7027 O.2       1 <0>        -0.5111
     17 N2          5.0960   -2.3805    0.8833 N.ar      1 <0>        -0.4694
     18 C14         3.9485   -1.7214    0.8861 C.ar      1 <0>         0.2054
     19 C15         2.9057   -2.0818    1.8744 C.ar      1 <0>        -0.0112
     20 C16         2.0776   -1.0955    2.4098 C.ar      1 <0>        -0.0796
     21 C17         1.1080   -1.4374    3.3301 C.ar      1 <0>        -0.1002
     22 C18         0.9565   -2.7555    3.7219 C.ar      1 <0>        -0.1515
     23 C19         1.7748   -3.7384    3.1945 C.ar      1 <0>        -0.0975
     24 C20         2.7442   -3.4097    2.2691 C.ar      1 <0>        -0.0742
     25 C21        -0.1041   -3.1222    4.7279 C.3       1 <0>         0.0434
     26 N3         -1.3543   -3.4428    4.0264 N.4       1 <0>        -0.3845
     27 C22        -1.8526   -2.2425    3.3442 C.3       1 <0>        -0.0128
     28 C23        -3.1108   -2.5903    2.5458 C.3       1 <0>        -0.1382
     29 C24        -4.1847   -3.1195    3.5007 C.3       1 <0>        -0.0175
     30 C25        -3.6277   -4.3266    4.2610 C.3       1 <0>        -0.1489
     31 C26        -2.3504   -3.9145    4.9959 C.3       1 <0>        -0.0025
     32 C27        -5.3989   -3.5373    2.7118 C.2       1 <0>         0.2808
     33 N4         -6.4539   -2.8005    2.4830 N.2       1 <0>        -0.5152
     34 H2         -4.9612   -5.4772    2.1154 H         1 <0>         0.4399
     35 C28        -7.3376   -3.4898    1.7489 C.2       1 <0>         0.3038
     36 N5         -6.8424   -4.6833    1.5043 N.2       1 <0>        -0.3014
     37 N6         -5.5800   -4.7302    2.1176 N.pl3     1 <0>        -0.4764
     38 C29        -8.6569   -2.9896    1.2885 C.2       1 <0>        -0.1379
     39 C30        -9.0721   -1.6806    1.6152 C.2       1 <0>         0.0104
     40 C31       -10.2866   -1.2424    1.1823 C.2       1 <0>        -0.2330
     41 C32       -11.0996   -2.1006    0.4209 C.2       1 <0>         0.5148
     42 O2        -12.1893   -1.7158    0.0286 O.2       1 <0>        -0.5324
     43 N7        -10.6809   -3.3446    0.1226 N.am      1 <0>        -0.6016
     44 H3        -11.2502   -3.9278   -0.4033 H         1 <0>         0.4239
     45 C33        -9.4716   -3.7912    0.5427 C.2       1 <0>         0.1894
     46 H4         -0.9603    1.9042    0.0260 H         1 <0>         0.1268
     47 H5          1.1477    3.1723    0.0078 H         1 <0>         0.1306
     48 H6          3.3021    1.9851   -0.0192 H         1 <0>         0.1283
     49 H7          1.2182   -1.7603   -0.0191 H         1 <0>         0.1192
     50 H8         -0.9264   -0.5557    0.0079 H         1 <0>         0.1217
     51 H9          4.5186    0.4455   -1.6799 H         1 <0>         0.1564
     52 H10         7.5087   -3.6039    0.7294 H         1 <0>         0.1604
     53 H11         9.2154   -3.0236   -0.8643 H         1 <0>         0.1743
     54 H12         2.1952   -0.0661    2.1049 H         1 <0>         0.1439
     55 H13         0.4664   -0.6745    3.7456 H         1 <0>         0.1356
     56 H14         1.6520   -4.7656    3.5045 H         1 <0>         0.1353
     57 H15         3.3793   -4.1785    1.8544 H         1 <0>         0.1425
     58 H16         0.2234   -3.9892    5.3015 H         1 <0>         0.1399
     59 H17        -0.2710   -2.2823    5.4023 H         1 <0>         0.1388
     60 H18        -2.0917   -1.4779    4.0834 H         1 <0>         0.1366
     61 H19        -1.0861   -1.8652    2.6674 H         1 <0>         0.1396
     62 H20        -3.4802   -1.6974    2.0415 H         1 <0>         0.1244
     63 H21        -2.8728   -3.3547    1.8061 H         1 <0>         0.0900
     64 H22        -4.4599   -2.3380    4.2089 H         1 <0>         0.1303
     65 H23        -4.3667   -4.6747    4.9827 H         1 <0>         0.1234
     66 H24        -3.4004   -5.1270    3.5569 H         1 <0>         0.0882
     67 H25        -1.9514   -4.7715    5.5384 H         1 <0>         0.1390
     68 H26        -2.5789   -3.1142    5.6998 H         1 <0>         0.1375
     69 H27        -8.4349   -1.0350    2.2013 H         1 <0>         0.1469
     70 H28       -10.6226   -0.2444    1.4220 H         1 <0>         0.1586
     71 H29        -9.1521   -4.7911    0.2885 H         1 <0>         0.1742
     72 H30        -1.1805   -4.1666    3.3452 H         1 <0>         0.4221
@<TRIPOS>BOND
     1    1    6 ar
     2    1    2 ar
     3    1   46 1
     4    2    3 ar
     5    2   47 1
     6    3    4 ar
     7    3   48 1
     8    4    5 ar
     9    4    7 1
    10    5    6 ar
    11    5   49 1
    12    6   50 1
    13    7   18 ar
    14    7    8 ar
    15    8    9 ar
    16    8   51 1
    17    9   15 1
    18    9   10 ar
    19   10   11 1
    20   10   17 ar
    21   11   12 2
    22   11   52 1
    23   12   13 1
    24   12   53 1
    25   13   14 1
    26   13   15 am
    27   15   16 2
    28   17   18 ar
    29   18   19 1
    30   19   24 ar
    31   19   20 ar
    32   20   21 ar
    33   20   54 1
    34   21   22 ar
    35   21   55 1
    36   22   23 ar
    37   22   25 1
    38   23   24 ar
    39   23   56 1
    40   24   57 1
    41   25   26 1
    42   25   58 1
    43   25   59 1
    44   26   31 1
    45   26   27 1
    46   26   72 1
    47   27   28 1
    48   27   60 1
    49   27   61 1
    50   28   29 1
    51   28   62 1
    52   28   63 1
    53   29   30 1
    54   29   64 1
    55   29   32 1
    56   30   31 1
    57   30   65 1
    58   30   66 1
    59   31   67 1
    60   31   68 1
    61   32   33 2
    62   32   37 1
    63   33   35 1
    64   34   37 1
    65   35   38 1
    66   35   36 2
    67   36   37 1
    68   38   45 2
    69   38   39 1
    70   39   40 2
    71   39   69 1
    72   40   41 1
    73   40   70 1
    74   41   42 2
    75   41   43 am
    76   43   44 1
    77   43   45 1
    78   45   71 1
@<TRIPOS>MOLECULE
CHEMBL447114
   70    76     0     0     0
SMALL
USER_CHARGES

@<TRIPOS>ATOM
      1 C1         -0.0167    1.3792    0.0096 C.ar      1 <0>        -0.1098
      2 C2          1.1686    2.0925    0.0021 C.ar      1 <0>        -0.1113
      3 C3          2.3774    1.4271   -0.0130 C.ar      1 <0>        -0.1031
      4 C4          2.4026    0.0331   -0.0207 C.ar      1 <0>        -0.0483
      5 C5          1.2048   -0.6804   -0.0131 C.ar      1 <0>        -0.1002
      6 C6          0.0021   -0.0041    0.0020 C.ar      1 <0>        -0.1221
      7 C7          3.6977   -0.6874   -0.0375 C.ar      1 <0>        -0.1088
      8 C8          4.6806   -0.3453   -0.9625 C.ar      1 <0>         0.0161
      9 C9          5.8811   -1.0557   -0.9345 C.ar      1 <0>        -0.1981
     10 C10         6.0604   -2.0873    0.0193 C.ar      1 <0>         0.2200
     11 C11         7.3333   -2.8108    0.0176 C.2       1 <0>        -0.2023
     12 C12         8.2816   -2.4813   -0.8749 C.2       1 <0>         0.1432
     13 N1          8.1107   -1.4880   -1.7936 N.am      1 <0>        -0.6309
     14 H1          8.8309   -1.2936   -2.4136 H         1 <0>         0.4231
     15 C13         6.9738   -0.7679   -1.8686 C.2       1 <0>         0.5517
     16 O1          6.8556    0.1116   -2.7027 O.2       1 <0>        -0.5119
     17 N2          5.0960   -2.3805    0.8833 N.ar      1 <0>        -0.4694
     18 C14         3.9485   -1.7214    0.8861 C.ar      1 <0>         0.2071
     19 C15         2.9057   -2.0818    1.8744 C.ar      1 <0>        -0.0138
     20 C16         2.0776   -1.0955    2.4098 C.ar      1 <0>        -0.0801
     21 C17         1.1080   -1.4374    3.3301 C.ar      1 <0>        -0.1004
     22 C18         0.9565   -2.7555    3.7219 C.ar      1 <0>        -0.1487
     23 C19         1.7748   -3.7384    3.1945 C.ar      1 <0>        -0.0974
     24 C20         2.7442   -3.4097    2.2691 C.ar      1 <0>        -0.0738
     25 C21        -0.1041   -3.1222    4.7279 C.3       1 <0>         0.0430
     26 N3         -1.3543   -3.4428    4.0264 N.4       1 <0>        -0.3834
     27 C22        -1.8526   -2.2425    3.3442 C.3       1 <0>        -0.0114
     28 C23        -3.1108   -2.5903    2.5458 C.3       1 <0>        -0.1381
     29 C24        -4.1847   -3.1195    3.5007 C.3       1 <0>         0.0016
     30 C25        -3.6277   -4.3266    4.2610 C.3       1 <0>        -0.1402
     31 C26        -2.3504   -3.9145    4.9959 C.3       1 <0>        -0.0033
     32 C27        -5.3989   -3.5373    2.7118 C.2       1 <0>         0.2163
     33 N4         -6.6190   -3.0308    2.8514 N.2       1 <0>        -0.4853
     34 H2         -7.0749   -5.1182    0.6110 H         1 <0>         0.4552
     35 C28        -7.4447   -3.6175    2.0097 C.2       1 <0>         0.3550
     36 N5         -6.7379   -4.5303    1.3051 N.pl3     1 <0>        -0.4414
     37 N6         -5.4172   -4.4530    1.7765 N.2       1 <0>        -0.2905
     38 C29        -8.8896   -3.3298    1.8617 C.ar      1 <0>         0.3667
     39 N7         -9.4458   -2.3978    2.6245 N.ar      1 <0>        -0.4687
     40 C30       -10.7325   -2.1164    2.5172 C.ar      1 <0>         0.1563
     41 C31       -11.5020   -2.8088    1.5936 C.ar      1 <0>        -0.2014
     42 C32       -10.8886   -3.7770    0.8119 C.ar      1 <0>         0.1583
     43 N8         -9.5962   -4.0062    0.9657 N.ar      1 <0>        -0.5088
     44 H3         -0.9603    1.9042    0.0260 H         1 <0>         0.1261
     45 H4          1.1477    3.1723    0.0078 H         1 <0>         0.1300
     46 H5          3.3021    1.9851   -0.0192 H         1 <0>         0.1280
     47 H6          1.2182   -1.7603   -0.0191 H         1 <0>         0.1200
     48 H7         -0.9264   -0.5557    0.0079 H         1 <0>         0.1223
     49 H8          4.5186    0.4455   -1.6799 H         1 <0>         0.1561
     50 H9          7.5087   -3.6039    0.7294 H         1 <0>         0.1603
     51 H10         9.2154   -3.0236   -0.8643 H         1 <0>         0.1740
     52 H11         2.1952   -0.0661    2.1049 H         1 <0>         0.1433
     53 H12         0.4664   -0.6745    3.7456 H         1 <0>         0.1353
     54 H13         1.6520   -4.7656    3.5045 H         1 <0>         0.1357
     55 H14         3.3793   -4.1785    1.8544 H         1 <0>         0.1422
     56 H15         0.2234   -3.9892    5.3015 H         1 <0>         0.1390
     57 H16        -0.2710   -2.2823    5.4023 H         1 <0>         0.1376
     58 H17        -2.0917   -1.4779    4.0834 H         1 <0>         0.1336
     59 H18        -1.0861   -1.8652    2.6674 H         1 <0>         0.1367
     60 H19        -3.4802   -1.6974    2.0415 H         1 <0>         0.1157
     61 H20        -2.8728   -3.3547    1.8061 H         1 <0>         0.0962
     62 H21        -4.4599   -2.3380    4.2089 H         1 <0>         0.1192
     63 H22        -4.3667   -4.6747    4.9827 H         1 <0>         0.1168
     64 H23        -3.4004   -5.1270    3.5569 H         1 <0>         0.0967
     65 H24        -1.9514   -4.7715    5.5384 H         1 <0>         0.1361
     66 H25        -2.5789   -3.1142    5.6998 H         1 <0>         0.1342
     67 H26       -11.1798   -1.3569    3.1412 H         1 <0>         0.1841
     68 H27       -12.5559   -2.5989    1.4856 H         1 <0>         0.1628
     69 H28       -11.4596   -4.3338    0.0836 H         1 <0>         0.1837
     70 H29        -1.1805   -4.1666    3.3452 H         1 <0>         0.4233
@<TRIPOS>BOND
     1    1    6 ar
     2    1    2 ar
     3    1   44 1
     4    2    3 ar
     5    2   45 1
     6    3    4 ar
     7    3   46 1
     8    4    5 ar
     9    4    7 1
    10    5    6 ar
    11    5   47 1
    12    6   48 1
    13    7   18 ar
    14    7    8 ar
    15    8    9 ar
    16    8   49 1
    17    9   15 1
    18    9   10 ar
    19   10   11 1
    20   10   17 ar
    21   11   12 2
    22   11   50 1
    23   12   13 1
    24   12   51 1
    25   13   14 1
    26   13   15 am
    27   15   16 2
    28   17   18 ar
    29   18   19 1
    30   19   24 ar
    31   19   20 ar
    32   20   21 ar
    33   20   52 1
    34   21   22 ar
    35   21   53 1
    36   22   23 ar
    37   22   25 1
    38   23   24 ar
    39   23   54 1
    40   24   55 1
    41   25   26 1
    42   25   56 1
    43   25   57 1
    44   26   31 1
    45   26   27 1
    46   26   70 1
    47   27   28 1
    48   27   58 1
    49   27   59 1
    50   28   29 1
    51   28   60 1
    52   28   61 1
    53   29   30 1
    54   29   62 1
    55   29   32 1
    56   30   31 1
    57   30   63 1
    58   30   64 1
    59   31   65 1
    60   31   66 1
    61   32   33 1
    62   32   37 2
    63   33   35 2
    64   34   36 1
    65   35   38 1
    66   35   36 1
    67   36   37 1
    68   38   43 ar
    69   38   39 ar
    70   39   40 ar
    71   40   41 ar
    72   40   67 1
    73   41   42 ar
    74   41   68 1
    75   42   43 ar
    76   42   69 1
@<TRIPOS>MOLECULE
CHEMBL447114
   70    76     0     0     0
SMALL
USER_CHARGES

@<TRIPOS>ATOM
      1 C1         -0.0167    1.3792    0.0096 C.ar      1 <0>        -0.1093
      2 C2          1.1686    2.0925    0.0021 C.ar      1 <0>        -0.1108
      3 C3          2.3774    1.4271   -0.0130 C.ar      1 <0>        -0.1028
      4 C4          2.4026    0.0331   -0.0207 C.ar      1 <0>        -0.0485
      5 C5          1.2048   -0.6804   -0.0131 C.ar      1 <0>        -0.1011
      6 C6          0.0021   -0.0041    0.0020 C.ar      1 <0>        -0.1224
      7 C7          3.6977   -0.6874   -0.0375 C.ar      1 <0>        -0.1088
      8 C8          4.6806   -0.3453   -0.9625 C.ar      1 <0>         0.0163
      9 C9          5.8811   -1.0557   -0.9345 C.ar      1 <0>        -0.1975
     10 C10         6.0604   -2.0873    0.0193 C.ar      1 <0>         0.2203
     11 C11         7.3333   -2.8108    0.0176 C.2       1 <0>        -0.2030
     12 C12         8.2816   -2.4813   -0.8749 C.2       1 <0>         0.1440
     13 N1          8.1107   -1.4880   -1.7936 N.am      1 <0>        -0.6308
     14 H1          8.8309   -1.2936   -2.4136 H         1 <0>         0.4233
     15 C13         6.9738   -0.7679   -1.8686 C.2       1 <0>         0.5515
     16 O1          6.8556    0.1116   -2.7027 O.2       1 <0>        -0.5113
     17 N2          5.0960   -2.3805    0.8833 N.ar      1 <0>        -0.4694
     18 C14         3.9485   -1.7214    0.8861 C.ar      1 <0>         0.2057
     19 C15         2.9057   -2.0818    1.8744 C.ar      1 <0>        -0.0117
     20 C16         2.0776   -1.0955    2.4098 C.ar      1 <0>        -0.0797
     21 C17         1.1080   -1.4374    3.3301 C.ar      1 <0>        -0.1002
     22 C18         0.9565   -2.7555    3.7219 C.ar      1 <0>        -0.1511
     23 C19         1.7748   -3.7384    3.1945 C.ar      1 <0>        -0.0975
     24 C20         2.7442   -3.4097    2.2691 C.ar      1 <0>        -0.0742
     25 C21        -0.1041   -3.1222    4.7279 C.3       1 <0>         0.0435
     26 N3         -1.3543   -3.4428    4.0264 N.4       1 <0>        -0.3846
     27 C22        -1.8526   -2.2425    3.3442 C.3       1 <0>        -0.0124
     28 C23        -3.1108   -2.5903    2.5458 C.3       1 <0>        -0.1389
     29 C24        -4.1847   -3.1195    3.5007 C.3       1 <0>        -0.0156
     30 C25        -3.6277   -4.3266    4.2610 C.3       1 <0>        -0.1495
     31 C26        -2.3504   -3.9145    4.9959 C.3       1 <0>        -0.0021
     32 C27        -5.3989   -3.5373    2.7118 C.2       1 <0>         0.2713
     33 N4         -6.4531   -2.8011    2.4832 N.2       1 <0>        -0.4835
     34 H2         -4.9613   -5.4782    2.1146 H         1 <0>         0.4421
     35 C28        -7.3374   -3.4902    1.7489 C.2       1 <0>         0.2918
     36 N5         -6.8427   -4.6840    1.5039 N.2       1 <0>        -0.2393
     37 N6         -5.5801   -4.7312    2.1171 N.pl3     1 <0>        -0.4749
     38 C29        -8.6559   -2.9898    1.2893 C.ar      1 <0>         0.3842
     39 N7         -9.0272   -1.7573    1.6073 N.ar      1 <0>        -0.4790
     40 C30       -10.1957   -1.2808    1.2136 C.ar      1 <0>         0.1514
     41 C31       -11.0358   -2.0867    0.4597 C.ar      1 <0>        -0.2083
     42 C32       -10.6163   -3.3707    0.1449 C.ar      1 <0>         0.1531
     43 N8         -9.4331   -3.7838    0.5655 N.ar      1 <0>        -0.4886
     44 H3         -0.9603    1.9042    0.0260 H         1 <0>         0.1268
     45 H4          1.1477    3.1723    0.0078 H         1 <0>         0.1305
     46 H5          3.3021    1.9851   -0.0192 H         1 <0>         0.1282
     47 H6          1.2182   -1.7603   -0.0191 H         1 <0>         0.1194
     48 H7         -0.9264   -0.5557    0.0079 H         1 <0>         0.1219
     49 H8          4.5186    0.4455   -1.6799 H         1 <0>         0.1563
     50 H9          7.5087   -3.6039    0.7294 H         1 <0>         0.1603
     51 H10         9.2154   -3.0236   -0.8643 H         1 <0>         0.1742
     52 H11         2.1952   -0.0661    2.1049 H         1 <0>         0.1438
     53 H12         0.4664   -0.6745    3.7456 H         1 <0>         0.1356
     54 H13         1.6520   -4.7656    3.5045 H         1 <0>         0.1354
     55 H14         3.3793   -4.1785    1.8544 H         1 <0>         0.1425
     56 H15         0.2234   -3.9892    5.3015 H         1 <0>         0.1398
     57 H16        -0.2710   -2.2823    5.4023 H         1 <0>         0.1387
     58 H17        -2.0917   -1.4779    4.0834 H         1 <0>         0.1368
     59 H18        -1.0861   -1.8652    2.6674 H         1 <0>         0.1395
     60 H19        -3.4802   -1.6974    2.0415 H         1 <0>         0.1247
     61 H20        -2.8728   -3.3547    1.8061 H         1 <0>         0.0904
     62 H21        -4.4599   -2.3380    4.2089 H         1 <0>         0.1314
     63 H22        -4.3667   -4.6747    4.9827 H         1 <0>         0.1239
     64 H23        -3.4004   -5.1270    3.5569 H         1 <0>         0.0887
     65 H24        -1.9514   -4.7715    5.5384 H         1 <0>         0.1391
     66 H25        -2.5789   -3.1142    5.6998 H         1 <0>         0.1377
     67 H26       -10.4927   -0.2762    1.4761 H         1 <0>         0.1803
     68 H27       -11.9959   -1.7225    0.1254 H         1 <0>         0.1593
     69 H28       -11.2469   -4.0236   -0.4402 H         1 <0>         0.1804
     70 H29        -1.1805   -4.1666    3.3452 H         1 <0>         0.4222
@<TRIPOS>BOND
     1    1    6 ar
     2    1    2 ar
     3    1   44 1
     4    2    3 ar
     5    2   45 1
     6    3    4 ar
     7    3   46 1
     8    4    5 ar
     9    4    7 1
    10    5    6 ar
    11    5   47 1
    12    6   48 1
    13    7   18 ar
    14    7    8 ar
    15    8    9 ar
    16    8   49 1
    17    9   15 1
    18    9   10 ar
    19   10   11 1
    20   10   17 ar
    21   11   12 2
    22   11   50 1
    23   12   13 1
    24   12   51 1
    25   13   14 1
    26   13   15 am
    27   15   16 2
    28   17   18 ar
    29   18   19 1
    30   19   24 ar
    31   19   20 ar
    32   20   21 ar
    33   20   52 1
    34   21   22 ar
    35   21   53 1
    36   22   23 ar
    37   22   25 1
    38   23   24 ar
    39   23   54 1
    40   24   55 1
    41   25   26 1
    42   25   56 1
    43   25   57 1
    44   26   31 1
    45   26   27 1
    46   26   70 1
    47   27   28 1
    48   27   58 1
    49   27   59 1
    50   28   29 1
    51   28   60 1
    52   28   61 1
    53   29   30 1
    54   29   62 1
    55   29   32 1
    56   30   31 1
    57   30   63 1
    58   30   64 1
    59   31   65 1
    60   31   66 1
    61   32   33 2
    62   32   37 1
    63   33   35 1
    64   34   37 1
    65   35   38 1
    66   35   36 2
    67   36   37 1
    68   38   43 ar
    69   38   39 ar
    70   39   40 ar
    71   40   41 ar
    72   40   67 1
    73   41   42 ar
    74   41   68 1
    75   42   43 ar
    76   42   69 1
@<TRIPOS>MOLECULE
CHEMBL575384
   60    64     0     0     0
SMALL
USER_CHARGES

@<TRIPOS>ATOM
      1 C1         -0.0190    1.5025    0.0313 C.3       1 <0>        -0.1599
      2 C2          0.0021   -0.0041    0.0020 C.2       1 <0>         0.0387
      3 C3          1.1755   -0.6596   -0.0128 C.2       1 <0>        -0.1992
      4 C4          1.3947   -2.1256    0.0737 C.ar      1 <0>        -0.0902
      5 C5          0.5336   -3.2069    0.1888 C.ar      1 <0>        -0.0515
      6 C6          1.0527   -4.4974    0.2491 C.ar      1 <0>        -0.0846
      7 C7          2.4332   -4.6925    0.1934 C.ar      1 <0>        -0.0662
      8 C8          3.2867   -3.6174    0.0795 C.ar      1 <0>        -0.1353
      9 C9          2.7803   -2.3219    0.0178 C.ar      1 <0>         0.1642
     10 N1          3.4164   -1.0904   -0.0957 N.am      1 <0>        -0.6546
     11 C10         2.5323   -0.0790   -0.1255 C.2       1 <0>         0.5623
     12 O1          2.7996    1.1035   -0.2244 O.2       1 <0>        -0.4924
     13 C11         0.1409   -5.6613    0.3728 C.ar      1 <0>        -0.0319
     14 C12         0.6529   -6.9593    0.4398 C.ar      1 <0>        -0.0991
     15 C13        -0.2427   -8.0145    0.5550 C.ar      1 <0>         0.0708
     16 C14        -1.6039   -7.7450    0.5993 C.ar      1 <0>         0.0184
     17 N2         -2.0525   -6.5070    0.5331 N.ar      1 <0>        -0.4372
     18 C15        -1.2389   -5.4761    0.4296 C.ar      1 <0>         0.0826
     19 O2          0.2077   -9.2950    0.6232 O.3       1 <0>        -0.3227
     20 C16        -0.7771  -10.3238    0.7408 C.3       1 <0>         0.0264
     21 C17        -0.0854  -11.6871    0.8035 C.3       1 <0>         0.0433
     22 H1          0.5648  -11.8049   -0.0634 H         1 <0>         0.1529
     23 C18        -1.1408  -12.7949    0.8037 C.3       1 <0>        -0.0555
     24 C19        -0.4596  -14.1377    0.7415 C.2       1 <0>        -0.2377
     25 C20        -0.2115  -14.8567   -0.3646 C.2       1 <0>         0.1040
     26 N3          0.4221  -16.0226   -0.0308 N.pl3     1 <0>        -0.5846
     27 H2          0.7029  -16.7044   -0.6610 H         1 <0>         0.4265
     28 C21         0.6018  -16.0839    1.3330 C.ar      1 <0>         0.0987
     29 C22         0.0631  -14.9030    1.8760 C.ar      1 <0>        -0.1171
     30 C23         0.1096  -14.6855    3.2541 C.ar      1 <0>        -0.1141
     31 C24         0.6823  -15.6208    4.0695 C.ar      1 <0>        -0.1190
     32 C25         1.2188  -16.7854    3.5384 C.ar      1 <0>        -0.0932
     33 C26         1.1753  -17.0245    2.1820 C.ar      1 <0>        -0.1109
     34 N4          0.7156  -11.7738    2.0318 N.4       1 <0>        -0.6362
     35 C27        -1.2923   -0.7757   -0.0106 C.3       1 <0>        -0.1417
     36 H3          1.0034    1.8802    0.0368 H         1 <0>         0.1001
     37 H4         -0.5395    1.8758   -0.8507 H         1 <0>         0.0857
     38 H5         -0.5363    1.8412    0.9289 H         1 <0>         0.0868
     39 H6         -0.5338   -3.0486    0.2318 H         1 <0>         0.1364
     40 H7          2.8354   -5.6937    0.2402 H         1 <0>         0.1329
     41 H8          4.3536   -3.7801    0.0379 H         1 <0>         0.1348
     42 H9          4.3780   -0.9762   -0.1512 H         1 <0>         0.4204
     43 H10         1.7174   -7.1376    0.4026 H         1 <0>         0.1483
     44 H11        -2.3054   -8.5612    0.6888 H         1 <0>         0.1576
     45 H12        -1.6461   -4.4769    0.3832 H         1 <0>         0.1652
     46 H13        -1.3577  -10.1688    1.6502 H         1 <0>         0.0920
     47 H14        -1.4404  -10.2923   -0.1236 H         1 <0>         0.1139
     48 H15        -1.7348  -12.7306    1.7154 H         1 <0>         0.0998
     49 H16        -1.7914  -12.6770   -0.0629 H         1 <0>         0.1218
     50 H17        -0.4736  -14.5591   -1.3692 H         1 <0>         0.1791
     51 H18        -0.3052  -13.7813    3.6743 H         1 <0>         0.1149
     52 H19         0.7181  -15.4521    5.1356 H         1 <0>         0.1312
     53 H20         1.6687  -17.5148    4.1956 H         1 <0>         0.1352
     54 H21         1.5966  -17.9333    1.7783 H         1 <0>         0.1294
     55 H22         1.1717  -12.6728    2.0732 H         1 <0>         0.4381
     56 H23         1.4116  -11.0432    2.0317 H         1 <0>         0.4392
     57 H24        -2.1288   -0.0808   -0.0852 H         1 <0>         0.0819
     58 H25        -1.3041   -1.4516   -0.8656 H         1 <0>         0.0852
     59 H26        -1.3803   -1.3527    0.9099 H         1 <0>         0.0860
     60 H27         0.1138  -11.6647    2.8343 H         1 <0>         0.4299
@<TRIPOS>BOND
     1    1    2 1
     2    1   36 1
     3    1   37 1
     4    1   38 1
     5    2    3 2
     6    2   35 1
     7    3   11 1
     8    3    4 1
     9    4    9 ar
    10    4    5 ar
    11    5    6 ar
    12    5   39 1
    13    6    7 ar
    14    6   13 1
    15    7    8 ar
    16    7   40 1
    17    8    9 ar
    18    8   41 1
    19    9   10 1
    20   10   11 am
    21   10   42 1
    22   11   12 2
    23   13   18 ar
    24   13   14 ar
    25   14   15 ar
    26   14   43 1
    27   15   16 ar
    28   15   19 1
    29   16   17 ar
    30   16   44 1
    31   17   18 ar
    32   18   45 1
    33   19   20 1
    34   20   21 1
    35   20   46 1
    36   20   47 1
    37   21   22 1
    38   21   23 1
    39   21   34 1
    40   23   24 1
    41   23   48 1
    42   23   49 1
    43   24   29 1
    44   24   25 2
    45   25   26 1
    46   25   50 1
    47   26   27 1
    48   26   28 1
    49   28   33 ar
    50   28   29 ar
    51   29   30 ar
    52   30   31 ar
    53   30   51 1
    54   31   32 ar
    55   31   52 1
    56   32   33 ar
    57   32   53 1
    58   33   54 1
    59   34   55 1
    60   34   56 1
    61   34   60 1
    62   35   57 1
    63   35   58 1
    64   35   59 1
@<TRIPOS>MOLECULE
CHEMBL576372
   69    73     0     0     0
SMALL
USER_CHARGES

@<TRIPOS>ATOM
      1 C1         -0.0184    1.5028    0.0103 C.3       1 <0>        -0.0837
      2 C2          0.0021   -0.0041    0.0020 C.2       1 <0>         0.1055
      3 C3          0.0080   -0.8219   -1.1499 C.ar      1 <0>        -0.1398
      4 C4         -0.0022   -0.5793   -2.5294 C.ar      1 <0>        -0.0559
      5 C5          0.0088   -1.6623   -3.3937 C.ar      1 <0>         0.0892
      6 N1          0.0283   -2.9109   -2.9313 N.ar      1 <0>        -0.4353
      7 C6          0.0384   -3.1855   -1.6462 C.ar      1 <0>         0.1195
      8 C7          0.0290   -2.1610   -0.7043 C.ar      1 <0>         0.0823
      9 N2          0.0351   -2.1145    0.6648 N.pl3     1 <0>        -0.4836
     10 H1          0.0493   -2.8801    1.2603 H         1 <0>         0.4504
     11 N3          0.0229   -0.7695    1.0556 N.2       1 <0>        -0.2271
     12 C8         -0.0016   -1.4268   -4.8585 C.ar      1 <0>        -0.0300
     13 C9         -0.1016   -2.4990   -5.7484 C.ar      1 <0>        -0.0692
     14 C10        -0.1076   -2.2252   -7.1100 C.ar      1 <0>         0.0593
     15 C11        -0.0149   -0.9070   -7.5356 C.ar      1 <0>         0.0251
     16 N4          0.0787    0.0809   -6.6674 N.ar      1 <0>        -0.4386
     17 C12         0.0823   -0.1325   -5.3675 C.ar      1 <0>         0.0923
     18 O1         -0.2027   -3.2352   -8.0146 O.3       1 <0>        -0.3221
     19 C13        -0.2022   -2.8708   -9.3963 C.3       1 <0>         0.0263
     20 C14        -0.3155   -4.1312  -10.2562 C.3       1 <0>         0.0438
     21 H2          0.4811   -4.8258   -9.9896 H         1 <0>         0.1574
     22 C15        -0.1898   -3.7537  -11.7336 C.3       1 <0>        -0.1000
     23 C16        -0.1781   -5.0055  -12.5726 C.ar      1 <0>        -0.0833
     24 C17         1.0204   -5.6311  -12.8634 C.ar      1 <0>        -0.1339
     25 C18         1.0344   -6.7795  -13.6329 C.ar      1 <0>        -0.0612
     26 C19        -0.1495   -7.3048  -14.1138 C.ar      1 <0>        -0.1937
     27 C20        -1.3530   -6.6792  -13.8235 C.ar      1 <0>         0.1380
     28 C21        -1.3650   -5.5300  -13.0459 C.ar      1 <0>        -0.1735
     29 O2         -2.5189   -7.1939  -14.2953 O.3       1 <0>        -0.3139
     30 C22        -2.4313   -8.3822  -15.0841 C.3       1 <0>         0.0603
     31 C23        -3.8340   -8.8083  -15.5219 C.3       1 <0>        -0.1005
     32 C24        -4.6546   -9.2089  -14.2926 C.3       1 <0>        -0.1416
     33 C25        -6.0285   -9.7091  -14.7440 C.3       1 <0>        -0.0081
     34 N5         -5.8648  -10.8717  -15.6249 N.4       1 <0>        -0.5070
     35 C26        -5.1407  -10.4782  -16.8396 C.3       1 <0>        -0.0051
     36 C27        -3.7327  -10.0077  -16.4688 C.3       1 <0>        -0.1445
     37 N6         -1.6187   -4.7678  -10.0227 N.4       1 <0>        -0.6370
     38 H3          1.0042    1.8801    0.0026 H         1 <0>         0.0900
     39 H4         -0.5455    1.8639   -0.8728 H         1 <0>         0.0850
     40 H5         -0.5286    1.8543    0.9071 H         1 <0>         0.0868
     41 H6         -0.0186    0.4307   -2.9115 H         1 <0>         0.1476
     42 H7          0.0541   -4.2144   -1.3183 H         1 <0>         0.1693
     43 H8         -0.1721   -3.5143   -5.3871 H         1 <0>         0.1560
     44 H9         -0.0190   -0.6876   -8.5931 H         1 <0>         0.1574
     45 H10         0.1558    0.7045   -4.6890 H         1 <0>         0.1690
     46 H11        -1.0488   -2.2150   -9.5995 H         1 <0>         0.0930
     47 H12         0.7256   -2.3506   -9.6346 H         1 <0>         0.1157
     48 H13        -1.0360   -3.1304  -12.0226 H         1 <0>         0.1074
     49 H14         0.7376   -3.2027  -11.8901 H         1 <0>         0.1316
     50 H15         1.9470   -5.2217  -12.4890 H         1 <0>         0.1373
     51 H16         1.9717   -7.2663  -13.8586 H         1 <0>         0.1391
     52 H17        -0.1380   -8.2016  -14.7154 H         1 <0>         0.1345
     53 H18        -2.3011   -5.0437  -12.8146 H         1 <0>         0.1317
     54 H19        -1.8187   -8.1894  -15.9648 H         1 <0>         0.0777
     55 H20        -1.9777   -9.1780  -14.4932 H         1 <0>         0.0724
     56 H21        -4.3233   -7.9799  -16.0341 H         1 <0>         0.1036
     57 H22        -4.1378  -10.0024  -13.7527 H         1 <0>         0.0892
     58 H23        -4.7782   -8.3446  -13.6401 H         1 <0>         0.1152
     59 H24        -6.6154   -9.9949  -13.8711 H         1 <0>         0.1359
     60 H25        -6.5445   -8.9148  -15.2835 H         1 <0>         0.1326
     61 H26        -5.3441  -11.5881  -15.1414 H         1 <0>         0.4287
     62 H27        -5.0723  -11.3319  -17.5139 H         1 <0>         0.1399
     63 H28        -5.6757   -9.6676  -17.3344 H         1 <0>         0.1340
     64 H29        -3.1974   -9.7143  -17.3718 H         1 <0>         0.1183
     65 H30        -3.1967  -10.8177  -15.9741 H         1 <0>         0.0939
     66 H31        -1.7016   -5.0167   -9.0484 H         1 <0>         0.4442
     67 H32        -2.3561   -4.1248  -10.2695 H         1 <0>         0.4325
     68 H33        -6.7730  -11.2315  -15.8776 H         1 <0>         0.4363
     69 H34        -1.6934   -5.5990  -10.5897 H         1 <0>         0.4334
@<TRIPOS>BOND
     1    1    2 1
     2    1   38 1
     3    1   39 1
     4    1   40 1
     5    2   11 2
     6    2    3 1
     7    3    8 ar
     8    3    4 ar
     9    4    5 ar
    10    4   41 1
    11    5    6 ar
    12    5   12 1
    13    6    7 ar
    14    7    8 ar
    15    7   42 1
    16    8    9 1
    17    9   10 1
    18    9   11 1
    19   12   17 ar
    20   12   13 ar
    21   13   14 ar
    22   13   43 1
    23   14   15 ar
    24   14   18 1
    25   15   16 ar
    26   15   44 1
    27   16   17 ar
    28   17   45 1
    29   18   19 1
    30   19   20 1
    31   19   46 1
    32   19   47 1
    33   20   21 1
    34   20   22 1
    35   20   37 1
    36   22   23 1
    37   22   48 1
    38   22   49 1
    39   23   28 ar
    40   23   24 ar
    41   24   25 ar
    42   24   50 1
    43   25   26 ar
    44   25   51 1
    45   26   27 ar
    46   26   52 1
    47   27   28 ar
    48   27   29 1
    49   28   53 1
    50   29   30 1
    51   30   31 1
    52   30   54 1
    53   30   55 1
    54   31   36 1
    55   31   32 1
    56   31   56 1
    57   32   33 1
    58   32   57 1
    59   32   58 1
    60   33   34 1
    61   33   59 1
    62   33   60 1
    63   34   35 1
    64   34   61 1
    65   34   68 1
    66   35   36 1
    67   35   62 1
    68   35   63 1
    69   36   64 1
    70   36   65 1
    71   37   66 1
    72   37   67 1
    73   37   69 1
@<TRIPOS>MOLECULE
CHEMBL446966
   75    81     0     0     0
SMALL
USER_CHARGES

@<TRIPOS>ATOM
      1 C1         -0.0173    1.4248    0.0099 C.3       1 <0>         0.0351
      2 O1          0.0021   -0.0041    0.0020 O.3       1 <0>        -0.2985
      3 C2          0.6045   -0.6058   -1.0535 C.ar      1 <0>         0.3518
      4 C3          0.6486   -1.9943   -1.1175 C.ar      1 <0>        -0.1860
      5 C4          1.2634   -2.6009   -2.1947 C.ar      1 <0>        -0.0144
      6 C5          1.8225   -1.7859   -3.1878 C.ar      1 <0>        -0.1494
      7 C6          1.7381   -0.4013   -3.0528 C.ar      1 <0>         0.2098
      8 N1          1.1374    0.1364   -2.0106 N.ar      1 <0>        -0.5374
      9 C7          2.4928   -2.3860   -4.3618 C.2       1 <0>         0.3610
     10 N2          3.0537   -1.7279   -5.3564 N.2       1 <0>        -0.5280
     11 H1          2.3384   -4.4408   -4.0464 H         1 <0>         0.4461
     12 C8          3.5585   -2.5883   -6.2365 C.2       1 <0>         0.2242
     13 N3          3.3317   -3.8084   -5.8243 N.2       1 <0>        -0.3040
     14 N4          2.6447   -3.7083   -4.6036 N.pl3     1 <0>        -0.4712
     15 C9          4.2775   -2.2158   -7.5075 C.3       1 <0>         0.0007
     16 C10         3.5317   -2.8036   -8.7089 C.3       1 <0>        -0.1392
     17 C11         4.3095   -2.4894   -9.9887 C.3       1 <0>        -0.0036
     18 N5          5.6511   -3.0793   -9.9074 N.4       1 <0>        -0.3833
     19 C12         6.3976   -2.4683   -8.8012 C.3       1 <0>        -0.0106
     20 C13         5.7002   -2.7816   -7.4757 C.3       1 <0>        -0.1374
     21 C14         6.3659   -2.8420  -11.1686 C.3       1 <0>         0.0430
     22 C15         7.6952   -3.5510  -11.1337 C.ar      1 <0>        -0.1484
     23 C16         8.8110   -2.8990  -10.6399 C.ar      1 <0>        -0.1025
     24 C17        10.0309   -3.5430  -10.6053 C.ar      1 <0>        -0.0742
     25 C18        10.1376   -4.8538  -11.0696 C.ar      1 <0>        -0.0138
     26 C19         9.0092   -5.5057  -11.5663 C.ar      1 <0>        -0.0790
     27 C20         7.7936   -4.8532  -11.5905 C.ar      1 <0>        -0.0959
     28 C21        11.4444   -5.5505  -11.0357 C.ar      1 <0>         0.2069
     29 C22        11.4829   -6.9359  -10.7802 C.ar      1 <0>        -0.1084
     30 C23        12.7113   -7.5899  -10.7486 C.ar      1 <0>         0.0160
     31 C24        13.8618   -6.8330  -10.9743 C.ar      1 <0>        -0.1979
     32 C25        13.7462   -5.4441  -11.2248 C.ar      1 <0>         0.2197
     33 N6         12.5532   -4.8616  -11.2513 N.ar      1 <0>        -0.4692
     34 C26        14.9753   -4.6831  -11.4566 C.2       1 <0>        -0.2024
     35 C27        16.1610   -5.3138  -11.4257 C.2       1 <0>         0.1433
     36 N7         16.2740   -6.6513  -11.1846 N.am      1 <0>        -0.6308
     37 H2         17.1569   -7.0530  -11.1739 H         1 <0>         0.4231
     38 C28        15.1993   -7.4332  -10.9603 C.2       1 <0>         0.5516
     39 O2         15.3377   -8.6244  -10.7479 O.2       1 <0>        -0.5118
     40 C29        10.2279   -7.6890  -10.5470 C.ar      1 <0>        -0.0490
     41 C30         9.2911   -7.2203   -9.6268 C.ar      1 <0>        -0.1002
     42 C31         8.1244   -7.9258   -9.4138 C.ar      1 <0>        -0.1205
     43 C32         7.8834   -9.0959  -10.1112 C.ar      1 <0>        -0.1102
     44 C33         8.8093   -9.5661  -11.0252 C.ar      1 <0>        -0.1113
     45 C34         9.9768   -8.8659  -11.2511 C.ar      1 <0>        -0.1036
     46 H3          1.0053    1.8021    0.0021 H         1 <0>         0.0648
     47 H4         -0.5445    1.7859   -0.8732 H         1 <0>         0.0648
     48 H5         -0.5275    1.7763    0.9067 H         1 <0>         0.1041
     49 H6          0.2073   -2.5914   -0.3332 H         1 <0>         0.1556
     50 H7          1.3125   -3.6772   -2.2699 H         1 <0>         0.1425
     51 H8          2.1654    0.2370   -3.8119 H         1 <0>         0.1765
     52 H9          4.3189   -1.1304   -7.5981 H         1 <0>         0.1175
     53 H10         3.4458   -3.8838   -8.5910 H         1 <0>         0.0961
     54 H11         2.5365   -2.3633   -8.7704 H         1 <0>         0.1162
     55 H12         3.7811   -2.9064  -10.8460 H         1 <0>         0.1356
     56 H13         4.3945   -1.4091  -10.1057 H         1 <0>         0.1340
     57 H14         7.4109   -2.8696   -8.7818 H         1 <0>         0.1360
     58 H15         6.4382   -1.3884   -8.9435 H         1 <0>         0.1333
     59 H16         6.2551   -2.3256   -6.6557 H         1 <0>         0.1149
     60 H17         5.6594   -3.8614   -7.3322 H         1 <0>         0.0954
     61 H18         5.7726   -3.2230  -11.9998 H         1 <0>         0.1386
     62 H19         6.5282   -1.7720  -11.2985 H         1 <0>         0.1379
     63 H20         8.7271   -1.8839  -10.2810 H         1 <0>         0.1359
     64 H21        10.9013   -3.0329  -10.2199 H         1 <0>         0.1424
     65 H22         9.0857   -6.5208  -11.9272 H         1 <0>         0.1431
     66 H23         6.9182   -5.3585  -11.9708 H         1 <0>         0.1348
     67 H24        12.7722   -8.6507  -10.5549 H         1 <0>         0.1561
     68 H25        14.9290   -3.6218  -11.6514 H         1 <0>         0.1603
     69 H26        17.0592   -4.7397  -11.5988 H         1 <0>         0.1740
     70 H27         9.4784   -6.3071   -9.0815 H         1 <0>         0.1196
     71 H28         7.3983   -7.5639   -8.7010 H         1 <0>         0.1227
     72 H29         6.9689   -9.6447   -9.9413 H         1 <0>         0.1261
     73 H30         8.6161  -10.4806  -11.5662 H         1 <0>         0.1300
     74 H31        10.6967   -9.2314  -11.9684 H         1 <0>         0.1280
     75 H32         5.5716   -4.0728   -9.7500 H         1 <0>         0.4231
@<TRIPOS>BOND
     1    1    2 1
     2    1   46 1
     3    1   47 1
     4    1   48 1
     5    2    3 1
     6    3    8 ar
     7    3    4 ar
     8    4    5 ar
     9    4   49 1
    10    5    6 ar
    11    5   50 1
    12    6    7 ar
    13    6    9 1
    14    7    8 ar
    15    7   51 1
    16    9   10 2
    17    9   14 1
    18   10   12 1
    19   11   14 1
    20   12   15 1
    21   12   13 2
    22   13   14 1
    23   15   20 1
    24   15   16 1
    25   15   52 1
    26   16   17 1
    27   16   53 1
    28   16   54 1
    29   17   18 1
    30   17   55 1
    31   17   56 1
    32   18   19 1
    33   18   21 1
    34   18   75 1
    35   19   20 1
    36   19   57 1
    37   19   58 1
    38   20   59 1
    39   20   60 1
    40   21   22 1
    41   21   61 1
    42   21   62 1
    43   22   27 ar
    44   22   23 ar
    45   23   24 ar
    46   23   63 1
    47   24   25 ar
    48   24   64 1
    49   25   26 ar
    50   25   28 1
    51   26   27 ar
    52   26   65 1
    53   27   66 1
    54   28   33 ar
    55   28   29 ar
    56   29   30 ar
    57   29   40 1
    58   30   31 ar
    59   30   67 1
    60   31   38 1
    61   31   32 ar
    62   32   33 ar
    63   32   34 1
    64   34   35 2
    65   34   68 1
    66   35   36 1
    67   35   69 1
    68   36   37 1
    69   36   38 am
    70   38   39 2
    71   40   45 ar
    72   40   41 ar
    73   41   42 ar
    74   41   70 1
    75   42   43 ar
    76   42   71 1
    77   43   44 ar
    78   43   72 1
    79   44   45 ar
    80   44   73 1
    81   45   74 1
@<TRIPOS>MOLECULE
CHEMBL446966
   75    81     0     0     0
SMALL
USER_CHARGES

@<TRIPOS>ATOM
      1 C1         -0.0173    1.4248    0.0099 C.3       1 <0>         0.0366
      2 O1          0.0021   -0.0041    0.0020 O.3       1 <0>        -0.3012
      3 C2         -1.1981   -0.6363    0.0101 C.ar      1 <0>         0.3435
      4 C3         -1.2412   -2.0258    0.0087 C.ar      1 <0>        -0.1914
      5 C4         -2.4670   -2.6628    0.0170 C.ar      1 <0>        -0.0022
      6 C5         -3.6247   -1.8773    0.0264 C.ar      1 <0>        -0.1259
      7 C6         -3.5008   -0.4911    0.0272 C.ar      1 <0>         0.1942
      8 N1         -2.3116    0.0777    0.0245 N.ar      1 <0>        -0.5401
      9 C7         -4.9655   -2.5130    0.0350 C.2       1 <0>         0.2955
     10 N2         -6.1375   -1.8638    0.0444 N.2       1 <0>        -0.5168
     11 H1         -7.0853   -4.8015    0.0467 H         1 <0>         0.4398
     12 C8         -7.1201   -2.7255    0.0501 C.2       1 <0>         0.2788
     13 N3         -6.5958   -3.9641    0.0445 N.pl3     1 <0>        -0.4769
     14 N4         -5.2003   -3.8069    0.0290 N.2       1 <0>        -0.2905
     15 C9         -8.5890   -2.3889    0.0615 C.3       1 <0>        -0.0172
     16 C10        -9.3474   -3.4336    0.8854 C.3       1 <0>        -0.1489
     17 C11       -10.8462   -3.1313    0.8271 C.3       1 <0>        -0.0023
     18 N5        -11.3047   -3.1782   -0.5665 N.4       1 <0>        -0.3846
     19 C12       -10.6341   -2.1314   -1.3469 C.3       1 <0>        -0.0116
     20 C13        -9.1270   -2.3952   -1.3723 C.3       1 <0>        -0.1382
     21 C14       -12.7574   -2.9645   -0.6100 C.3       1 <0>         0.0434
     22 C15       -13.2479   -3.1340   -2.0248 C.ar      1 <0>        -0.1508
     23 C16       -13.2888   -2.0434   -2.8751 C.ar      1 <0>        -0.1023
     24 C17       -13.7370   -2.1923   -4.1716 C.ar      1 <0>        -0.0740
     25 C18       -14.1492   -3.4454   -4.6243 C.ar      1 <0>        -0.0118
     26 C19       -14.1056   -4.5410   -3.7625 C.ar      1 <0>        -0.0791
     27 C20       -13.6501   -4.3807   -2.4698 C.ar      1 <0>        -0.0960
     28 C21       -14.6318   -3.6119   -6.0149 C.ar      1 <0>         0.2057
     29 C22       -14.3583   -4.8110   -6.7028 C.ar      1 <0>        -0.1091
     30 C23       -14.8122   -4.9667   -8.0095 C.ar      1 <0>         0.0164
     31 C24       -15.5259   -3.9141   -8.5842 C.ar      1 <0>        -0.1974
     32 C25       -15.7630   -2.7380   -7.8321 C.ar      1 <0>         0.2203
     33 N6        -15.3161   -2.6341   -6.5860 N.ar      1 <0>        -0.4690
     34 C26       -16.5150   -1.6551   -8.4688 C.2       1 <0>        -0.2031
     35 C27       -16.9528   -1.8048   -9.7299 C.2       1 <0>         0.1443
     36 N7        -16.7254   -2.9367  -10.4556 N.am      1 <0>        -0.6306
     37 H2        -17.0654   -2.9887  -11.3626 H         1 <0>         0.4234
     38 C28       -16.0433   -3.9855   -9.9541 C.2       1 <0>         0.5515
     39 O2        -15.8586   -4.9808  -10.6312 O.2       1 <0>        -0.5112
     40 C29       -13.5946   -5.8956   -6.0417 C.ar      1 <0>        -0.0483
     41 C30       -12.3889   -5.6125   -5.4013 C.ar      1 <0>        -0.1007
     42 C31       -11.6822   -6.6264   -4.7875 C.ar      1 <0>        -0.1213
     43 C32       -12.1678   -7.9216   -4.8067 C.ar      1 <0>        -0.1105
     44 C33       -13.3632   -8.2086   -5.4409 C.ar      1 <0>        -0.1108
     45 C34       -14.0819   -7.2019   -6.0528 C.ar      1 <0>        -0.1031
     46 H3          1.0053    1.8021    0.0021 H         1 <0>         0.1019
     47 H4         -0.5445    1.7859   -0.8732 H         1 <0>         0.0627
     48 H5         -0.5275    1.7763    0.9067 H         1 <0>         0.0629
     49 H6         -0.3269   -2.6006    0.0010 H         1 <0>         0.1523
     50 H7         -2.5301   -3.7410    0.0158 H         1 <0>         0.1502
     51 H8         -4.3879    0.1249    0.0341 H         1 <0>         0.1711
     52 H9         -8.7334   -1.4018    0.5007 H         1 <0>         0.1302
     53 H10        -9.1600   -4.4262    0.4758 H         1 <0>         0.0882
     54 H11        -9.0086   -3.3966    1.9208 H         1 <0>         0.1234
     55 H12       -11.3891   -3.8731    1.4128 H         1 <0>         0.1388
     56 H13       -11.0325   -2.1387    1.2372 H         1 <0>         0.1376
     57 H14       -11.0203   -2.1350   -2.3662 H         1 <0>         0.1390
     58 H15       -10.8248   -1.1601   -0.8905 H         1 <0>         0.1367
     59 H16        -8.6308   -1.6160   -1.9507 H         1 <0>         0.1241
     60 H17        -8.9351   -3.3663   -1.8287 H         1 <0>         0.0898
     61 H18       -13.2510   -3.6913    0.0352 H         1 <0>         0.1394
     62 H19       -12.9869   -1.9567   -0.2642 H         1 <0>         0.1391
     63 H20       -12.9697   -1.0735   -2.5232 H         1 <0>         0.1363
     64 H21       -13.7688   -1.3401   -4.8343 H         1 <0>         0.1431
     65 H22       -14.4235   -5.5138   -4.1074 H         1 <0>         0.1433
     66 H23       -13.6118   -5.2292   -1.8028 H         1 <0>         0.1346
     67 H24       -14.6176   -5.8741   -8.5618 H         1 <0>         0.1563
     68 H25       -16.7166   -0.7422   -7.9281 H         1 <0>         0.1605
     69 H26       -17.5064   -0.9977  -10.1866 H         1 <0>         0.1743
     70 H27       -12.0086   -4.6018   -5.3859 H         1 <0>         0.1195
     71 H28       -10.7479   -6.4085   -4.2914 H         1 <0>         0.1214
     72 H29       -11.6112   -8.7119   -4.3250 H         1 <0>         0.1260
     73 H30       -13.7371   -9.2218   -5.4533 H         1 <0>         0.1304
     74 H31       -15.0174   -7.4262   -6.5435 H         1 <0>         0.1284
     75 H32       -11.0876   -4.0813   -0.9607 H         1 <0>         0.4221
@<TRIPOS>BOND
     1    1    2 1
     2    1   46 1
     3    1   47 1
     4    1   48 1
     5    2    3 1
     6    3    8 ar
     7    3    4 ar
     8    4    5 ar
     9    4   49 1
    10    5    6 ar
    11    5   50 1
    12    6    7 ar
    13    6    9 1
    14    7    8 ar
    15    7   51 1
    16    9   10 1
    17    9   14 2
    18   10   12 2
    19   11   13 1
    20   12   15 1
    21   12   13 1
    22   13   14 1
    23   15   20 1
    24   15   16 1
    25   15   52 1
    26   16   17 1
    27   16   53 1
    28   16   54 1
    29   17   18 1
    30   17   55 1
    31   17   56 1
    32   18   19 1
    33   18   21 1
    34   18   75 1
    35   19   20 1
    36   19   57 1
    37   19   58 1
    38   20   59 1
    39   20   60 1
    40   21   22 1
    41   21   61 1
    42   21   62 1
    43   22   27 ar
    44   22   23 ar
    45   23   24 ar
    46   23   63 1
    47   24   25 ar
    48   24   64 1
    49   25   26 ar
    50   25   28 1
    51   26   27 ar
    52   26   65 1
    53   27   66 1
    54   28   33 ar
    55   28   29 ar
    56   29   30 ar
    57   29   40 1
    58   30   31 ar
    59   30   67 1
    60   31   38 1
    61   31   32 ar
    62   32   33 ar
    63   32   34 1
    64   34   35 2
    65   34   68 1
    66   35   36 1
    67   35   69 1
    68   36   37 1
    69   36   38 am
    70   38   39 2
    71   40   45 ar
    72   40   41 ar
    73   41   42 ar
    74   41   70 1
    75   42   43 ar
    76   42   71 1
    77   43   44 ar
    78   43   72 1
    79   44   45 ar
    80   44   73 1
    81   45   74 1
@<TRIPOS>MOLECULE
CHEMBL444136
   70    76     0     0     0
SMALL
USER_CHARGES

@<TRIPOS>ATOM
      1 C1         -0.0167    1.3792    0.0096 C.ar      1 <0>        -0.1099
      2 C2          1.1686    2.0925    0.0021 C.ar      1 <0>        -0.1112
      3 C3          2.3774    1.4271   -0.0130 C.ar      1 <0>        -0.1030
      4 C4          2.4026    0.0331   -0.0207 C.ar      1 <0>        -0.0481
      5 C5          1.2048   -0.6804   -0.0131 C.ar      1 <0>        -0.1003
      6 C6          0.0021   -0.0041    0.0020 C.ar      1 <0>        -0.1222
      7 C7          3.6977   -0.6874   -0.0375 C.ar      1 <0>        -0.1091
      8 C8          4.6806   -0.3453   -0.9625 C.ar      1 <0>         0.0163
      9 C9          5.8811   -1.0557   -0.9345 C.ar      1 <0>        -0.1980
     10 C10         6.0604   -2.0873    0.0193 C.ar      1 <0>         0.2202
     11 C11         7.3333   -2.8108    0.0176 C.2       1 <0>        -0.2025
     12 C12         8.2816   -2.4813   -0.8749 C.2       1 <0>         0.1435
     13 N1          8.1107   -1.4880   -1.7936 N.am      1 <0>        -0.6309
     14 H1          8.8309   -1.2936   -2.4136 H         1 <0>         0.4231
     15 C13         6.9738   -0.7679   -1.8686 C.2       1 <0>         0.5517
     16 O1          6.8556    0.1116   -2.7027 O.2       1 <0>        -0.5118
     17 N2          5.0960   -2.3805    0.8833 N.ar      1 <0>        -0.4694
     18 C14         3.9485   -1.7214    0.8861 C.ar      1 <0>         0.2070
     19 C15         2.9057   -2.0818    1.8744 C.ar      1 <0>        -0.0135
     20 C16         2.0776   -1.0955    2.4098 C.ar      1 <0>        -0.0800
     21 C17         1.1080   -1.4374    3.3301 C.ar      1 <0>        -0.1004
     22 C18         0.9565   -2.7555    3.7219 C.ar      1 <0>        -0.1491
     23 C19         1.7748   -3.7384    3.1945 C.ar      1 <0>        -0.0973
     24 C20         2.7442   -3.4097    2.2691 C.ar      1 <0>        -0.0738
     25 C21        -0.1041   -3.1222    4.7279 C.3       1 <0>         0.0431
     26 N3         -1.3543   -3.4428    4.0264 N.4       1 <0>        -0.3836
     27 C22        -1.8526   -2.2425    3.3442 C.3       1 <0>        -0.0115
     28 C23        -3.1108   -2.5903    2.5458 C.3       1 <0>        -0.1381
     29 C24        -4.1847   -3.1195    3.5007 C.3       1 <0>         0.0011
     30 C25        -3.6277   -4.3266    4.2610 C.3       1 <0>        -0.1402
     31 C26        -2.3504   -3.9145    4.9959 C.3       1 <0>        -0.0034
     32 C27        -5.3989   -3.5373    2.7118 C.2       1 <0>         0.2224
     33 N4         -6.6196   -3.0305    2.8515 N.2       1 <0>        -0.5142
     34 H2         -7.0745   -5.1192    0.6118 H         1 <0>         0.4547
     35 C28        -7.4453   -3.6180    2.0097 C.2       1 <0>         0.3511
     36 N5         -6.7378   -4.5308    1.3057 N.pl3     1 <0>        -0.4455
     37 N6         -5.4171   -4.4526    1.7768 N.2       1 <0>        -0.2949
     38 C29        -8.8896   -3.3307    1.8612 C.ar      1 <0>         0.1119
     39 C30        -9.4944   -2.3535    2.6535 C.ar      1 <0>         0.1154
     40 N7        -10.7827   -2.1016    2.5169 N.ar      1 <0>        -0.4312
     41 C31       -11.4994   -2.7730    1.6316 C.ar      1 <0>         0.0813
     42 C32       -10.9036   -3.7436    0.8439 C.ar      1 <0>         0.0631
     43 N8         -9.6148   -3.9991    0.9685 N.ar      1 <0>        -0.4273
     44 H3         -0.9603    1.9042    0.0260 H         1 <0>         0.1261
     45 H4          1.1477    3.1723    0.0078 H         1 <0>         0.1301
     46 H5          3.3021    1.9851   -0.0192 H         1 <0>         0.1281
     47 H6          1.2182   -1.7603   -0.0191 H         1 <0>         0.1199
     48 H7         -0.9264   -0.5557    0.0079 H         1 <0>         0.1221
     49 H8          4.5186    0.4455   -1.6799 H         1 <0>         0.1561
     50 H9          7.5087   -3.6039    0.7294 H         1 <0>         0.1603
     51 H10         9.2154   -3.0236   -0.8643 H         1 <0>         0.1741
     52 H11         2.1952   -0.0661    2.1049 H         1 <0>         0.1434
     53 H12         0.4664   -0.6745    3.7456 H         1 <0>         0.1353
     54 H13         1.6520   -4.7656    3.5045 H         1 <0>         0.1357
     55 H14         3.3793   -4.1785    1.8544 H         1 <0>         0.1423
     56 H15         0.2234   -3.9892    5.3015 H         1 <0>         0.1391
     57 H16        -0.2710   -2.2823    5.4023 H         1 <0>         0.1377
     58 H17        -2.0917   -1.4779    4.0834 H         1 <0>         0.1336
     59 H18        -1.0861   -1.8652    2.6674 H         1 <0>         0.1368
     60 H19        -3.4802   -1.6974    2.0415 H         1 <0>         0.1156
     61 H20        -2.8728   -3.3547    1.8061 H         1 <0>         0.0961
     62 H21        -4.4599   -2.3380    4.2089 H         1 <0>         0.1191
     63 H22        -4.3667   -4.6747    4.9827 H         1 <0>         0.1168
     64 H23        -3.4004   -5.1270    3.5569 H         1 <0>         0.0966
     65 H24        -1.9514   -4.7715    5.5384 H         1 <0>         0.1362
     66 H25        -2.5789   -3.1142    5.6998 H         1 <0>         0.1342
     67 H26        -8.9095   -1.8050    3.3770 H         1 <0>         0.1855
     68 H27       -12.5534   -2.5640    1.5227 H         1 <0>         0.1846
     69 H28       -11.4939   -4.2896    0.1228 H         1 <0>         0.1856
     70 H29        -1.1805   -4.1666    3.3452 H         1 <0>         0.4234
@<TRIPOS>BOND
     1    1    6 ar
     2    1    2 ar
     3    1   44 1
     4    2    3 ar
     5    2   45 1
     6    3    4 ar
     7    3   46 1
     8    4    5 ar
     9    4    7 1
    10    5    6 ar
    11    5   47 1
    12    6   48 1
    13    7   18 ar
    14    7    8 ar
    15    8    9 ar
    16    8   49 1
    17    9   15 1
    18    9   10 ar
    19   10   11 1
    20   10   17 ar
    21   11   12 2
    22   11   50 1
    23   12   13 1
    24   12   51 1
    25   13   14 1
    26   13   15 am
    27   15   16 2
    28   17   18 ar
    29   18   19 1
    30   19   24 ar
    31   19   20 ar
    32   20   21 ar
    33   20   52 1
    34   21   22 ar
    35   21   53 1
    36   22   23 ar
    37   22   25 1
    38   23   24 ar
    39   23   54 1
    40   24   55 1
    41   25   26 1
    42   25   56 1
    43   25   57 1
    44   26   31 1
    45   26   27 1
    46   26   70 1
    47   27   28 1
    48   27   58 1
    49   27   59 1
    50   28   29 1
    51   28   60 1
    52   28   61 1
    53   29   30 1
    54   29   62 1
    55   29   32 1
    56   30   31 1
    57   30   63 1
    58   30   64 1
    59   31   65 1
    60   31   66 1
    61   32   33 1
    62   32   37 2
    63   33   35 2
    64   34   36 1
    65   35   38 1
    66   35   36 1
    67   36   37 1
    68   38   43 ar
    69   38   39 ar
    70   39   40 ar
    71   39   67 1
    72   40   41 ar
    73   41   42 ar
    74   41   68 1
    75   42   43 ar
    76   42   69 1
@<TRIPOS>MOLECULE
CHEMBL444136
   70    76     0     0     0
SMALL
USER_CHARGES

@<TRIPOS>ATOM
      1 C1         -0.0167    1.3792    0.0096 C.ar      1 <0>        -0.1093
      2 C2          1.1686    2.0925    0.0021 C.ar      1 <0>        -0.1107
      3 C3          2.3774    1.4271   -0.0130 C.ar      1 <0>        -0.1027
      4 C4          2.4026    0.0331   -0.0207 C.ar      1 <0>        -0.0484
      5 C5          1.2048   -0.6804   -0.0131 C.ar      1 <0>        -0.1011
      6 C6          0.0021   -0.0041    0.0020 C.ar      1 <0>        -0.1225
      7 C7          3.6977   -0.6874   -0.0375 C.ar      1 <0>        -0.1089
      8 C8          4.6806   -0.3453   -0.9625 C.ar      1 <0>         0.0164
      9 C9          5.8811   -1.0557   -0.9345 C.ar      1 <0>        -0.1974
     10 C10         6.0604   -2.0873    0.0193 C.ar      1 <0>         0.2204
     11 C11         7.3333   -2.8108    0.0176 C.2       1 <0>        -0.2032
     12 C12         8.2816   -2.4813   -0.8749 C.2       1 <0>         0.1442
     13 N1          8.1107   -1.4880   -1.7936 N.am      1 <0>        -0.6308
     14 H1          8.8309   -1.2936   -2.4136 H         1 <0>         0.4234
     15 C13         6.9738   -0.7679   -1.8686 C.2       1 <0>         0.5515
     16 O1          6.8556    0.1116   -2.7027 O.2       1 <0>        -0.5112
     17 N2          5.0960   -2.3805    0.8833 N.ar      1 <0>        -0.4694
     18 C14         3.9485   -1.7214    0.8861 C.ar      1 <0>         0.2055
     19 C15         2.9057   -2.0818    1.8744 C.ar      1 <0>        -0.0114
     20 C16         2.0776   -1.0955    2.4098 C.ar      1 <0>        -0.0796
     21 C17         1.1080   -1.4374    3.3301 C.ar      1 <0>        -0.1003
     22 C18         0.9565   -2.7555    3.7219 C.ar      1 <0>        -0.1513
     23 C19         1.7748   -3.7384    3.1945 C.ar      1 <0>        -0.0975
     24 C20         2.7442   -3.4097    2.2691 C.ar      1 <0>        -0.0742
     25 C21        -0.1041   -3.1222    4.7279 C.3       1 <0>         0.0435
     26 N3         -1.3543   -3.4428    4.0264 N.4       1 <0>        -0.3845
     27 C22        -1.8526   -2.2425    3.3442 C.3       1 <0>        -0.0125
     28 C23        -3.1108   -2.5903    2.5458 C.3       1 <0>        -0.1386
     29 C24        -4.1847   -3.1195    3.5007 C.3       1 <0>        -0.0166
     30 C25        -3.6277   -4.3266    4.2610 C.3       1 <0>        -0.1492
     31 C26        -2.3504   -3.9145    4.9959 C.3       1 <0>        -0.0022
     32 C27        -5.3989   -3.5373    2.7118 C.2       1 <0>         0.2745
     33 N4         -6.4534   -2.8009    2.4831 N.2       1 <0>        -0.4882
     34 H2         -4.9616   -5.4782    2.1156 H         1 <0>         0.4422
     35 C28        -7.3371   -3.4898    1.7482 C.2       1 <0>         0.2881
     36 N5         -6.8420   -4.6833    1.5029 N.2       1 <0>        -0.2726
     37 N6         -5.5801   -4.7309    2.1173 N.pl3     1 <0>        -0.4718
     38 C29        -8.6556   -2.9894    1.2880 C.ar      1 <0>         0.1369
     39 C30        -9.4901   -3.8107    0.5297 C.ar      1 <0>         0.0945
     40 N7        -10.6620   -3.3607    0.1228 N.ar      1 <0>        -0.4324
     41 C31       -11.0450   -2.1336    0.4328 C.ar      1 <0>         0.0715
     42 C32       -10.2202   -1.3155    1.1849 C.ar      1 <0>         0.0570
     43 N8         -9.0481   -1.7587    1.6013 N.ar      1 <0>        -0.4000
     44 H3         -0.9603    1.9042    0.0260 H         1 <0>         0.1267
     45 H4          1.1477    3.1723    0.0078 H         1 <0>         0.1306
     46 H5          3.3021    1.9851   -0.0192 H         1 <0>         0.1283
     47 H6          1.2182   -1.7603   -0.0191 H         1 <0>         0.1193
     48 H7         -0.9264   -0.5557    0.0079 H         1 <0>         0.1217
     49 H8          4.5186    0.4455   -1.6799 H         1 <0>         0.1563
     50 H9          7.5087   -3.6039    0.7294 H         1 <0>         0.1604
     51 H10         9.2154   -3.0236   -0.8643 H         1 <0>         0.1743
     52 H11         2.1952   -0.0661    2.1049 H         1 <0>         0.1439
     53 H12         0.4664   -0.6745    3.7456 H         1 <0>         0.1356
     54 H13         1.6520   -4.7656    3.5045 H         1 <0>         0.1354
     55 H14         3.3793   -4.1785    1.8544 H         1 <0>         0.1426
     56 H15         0.2234   -3.9892    5.3015 H         1 <0>         0.1400
     57 H16        -0.2710   -2.2823    5.4023 H         1 <0>         0.1388
     58 H17        -2.0917   -1.4779    4.0834 H         1 <0>         0.1368
     59 H18        -1.0861   -1.8652    2.6674 H         1 <0>         0.1397
     60 H19        -3.4802   -1.6974    2.0415 H         1 <0>         0.1245
     61 H20        -2.8728   -3.3547    1.8061 H         1 <0>         0.0903
     62 H21        -4.4599   -2.3380    4.2089 H         1 <0>         0.1312
     63 H22        -4.3667   -4.6747    4.9827 H         1 <0>         0.1237
     64 H23        -3.4004   -5.1270    3.5569 H         1 <0>         0.0886
     65 H24        -1.9514   -4.7715    5.5384 H         1 <0>         0.1393
     66 H25        -2.5789   -3.1142    5.6998 H         1 <0>         0.1377
     67 H26        -9.1775   -4.8129    0.2760 H         1 <0>         0.1776
     68 H27       -12.0046   -1.7686    0.0977 H         1 <0>         0.1813
     69 H28       -10.5376   -0.3139    1.4351 H         1 <0>         0.1823
     70 H29        -1.1805   -4.1666    3.3452 H         1 <0>         0.4222
@<TRIPOS>BOND
     1    1    6 ar
     2    1    2 ar
     3    1   44 1
     4    2    3 ar
     5    2   45 1
     6    3    4 ar
     7    3   46 1
     8    4    5 ar
     9    4    7 1
    10    5    6 ar
    11    5   47 1
    12    6   48 1
    13    7   18 ar
    14    7    8 ar
    15    8    9 ar
    16    8   49 1
    17    9   15 1
    18    9   10 ar
    19   10   11 1
    20   10   17 ar
    21   11   12 2
    22   11   50 1
    23   12   13 1
    24   12   51 1
    25   13   14 1
    26   13   15 am
    27   15   16 2
    28   17   18 ar
    29   18   19 1
    30   19   24 ar
    31   19   20 ar
    32   20   21 ar
    33   20   52 1
    34   21   22 ar
    35   21   53 1
    36   22   23 ar
    37   22   25 1
    38   23   24 ar
    39   23   54 1
    40   24   55 1
    41   25   26 1
    42   25   56 1
    43   25   57 1
    44   26   31 1
    45   26   27 1
    46   26   70 1
    47   27   28 1
    48   27   58 1
    49   27   59 1
    50   28   29 1
    51   28   60 1
    52   28   61 1
    53   29   30 1
    54   29   62 1
    55   29   32 1
    56   30   31 1
    57   30   63 1
    58   30   64 1
    59   31   65 1
    60   31   66 1
    61   32   33 2
    62   32   37 1
    63   33   35 1
    64   34   37 1
    65   35   38 1
    66   35   36 2
    67   36   37 1
    68   38   43 ar
    69   38   39 ar
    70   39   40 ar
    71   39   67 1
    72   40   41 ar
    73   41   42 ar
    74   41   68 1
    75   42   43 ar
    76   42   69 1
@<TRIPOS>MOLECULE
CHEMBL576348
   61    66     0     0     0
SMALL
USER_CHARGES

@<TRIPOS>ATOM
      1 C1         -0.0165    1.3620    0.0095 C.ar      1 <0>        -0.1190
      2 C2          1.1697    2.0834    0.0021 C.ar      1 <0>        -0.0931
      3 C3          2.3856    1.4362   -0.0134 C.ar      1 <0>        -0.1110
      4 C4          2.4281    0.0456   -0.0212 C.ar      1 <0>         0.0986
      5 C5          1.2234   -0.6807   -0.0132 C.ar      1 <0>        -0.1171
      6 C6          0.0021   -0.0041    0.0020 C.ar      1 <0>        -0.1140
      7 C7          1.6036   -2.0953   -0.0245 C.2       1 <0>        -0.2376
      8 C8          2.9451   -2.1410   -0.0380 C.2       1 <0>         0.1039
      9 N1          3.4551   -0.8713   -0.0363 N.pl3     1 <0>        -0.5844
     10 H1          4.3995   -0.6501   -0.0442 H         1 <0>         0.4265
     11 C9          0.6664   -3.2754   -0.0210 C.3       1 <0>        -0.0556
     12 C10         0.2361   -3.5891   -1.4554 C.3       1 <0>         0.0435
     13 H2          1.1200   -3.7379   -2.0756 H         1 <0>         0.1529
     14 C11        -0.6144   -4.8610   -1.4661 C.3       1 <0>         0.0264
     15 O1         -0.9189   -5.2190   -2.8156 O.3       1 <0>        -0.3227
     16 C12        -1.6731   -6.3340   -3.0030 C.ar      1 <0>         0.0698
     17 C13        -2.0063   -6.7503   -4.2858 C.ar      1 <0>        -0.0983
     18 C14        -2.7829   -7.9025   -4.4264 C.ar      1 <0>        -0.0333
     19 C15        -3.1908   -8.5858   -3.2820 C.ar      1 <0>         0.0859
     20 N2         -2.8519   -8.1548   -2.0846 N.ar      1 <0>        -0.4378
     21 C16        -2.1151   -7.0742   -1.9153 C.ar      1 <0>         0.0190
     22 C17        -3.1680   -8.3915   -5.7731 C.ar      1 <0>        -0.0835
     23 C18        -2.7522   -7.7062   -6.9137 C.ar      1 <0>        -0.0603
     24 C19        -3.1096   -8.1591   -8.1638 C.ar      1 <0>        -0.1373
     25 C20        -3.8906   -9.3070   -8.2996 C.ar      1 <0>         0.1695
     26 C21        -4.3012   -9.9855   -7.1577 C.ar      1 <0>        -0.1244
     27 C22        -3.9438   -9.5432   -5.9064 C.ar      1 <0>        -0.0306
     28 C23        -5.1170  -11.1654   -7.6346 C.3       1 <0>        -0.0092
     29 C24        -5.0956  -11.0414   -9.1432 C.2       1 <0>         0.5387
     30 O2         -5.6318  -11.7876   -9.9349 O.2       1 <0>        -0.4803
     31 N3         -4.3713   -9.9496   -9.4405 N.am      1 <0>        -0.6583
     32 C25        -6.5295  -11.0745   -7.1172 C.2       1 <0>         0.0166
     33 C26        -7.2372   -9.9394   -6.9462 C.2       1 <0>        -0.1702
     34 C27        -8.5033  -10.3031   -6.4464 C.2       1 <0>        -0.2018
     35 C28        -8.5210  -11.6466   -6.3311 C.2       1 <0>         0.0045
     36 N4         -7.3143  -12.1260   -6.7469 N.pl3     1 <0>        -0.5487
     37 H3         -7.0559  -13.0606   -6.7726 H         1 <0>         0.4165
     38 N5         -0.5518   -2.4687   -1.9863 N.4       1 <0>        -0.6362
     39 H4         -0.9613    1.8849    0.0259 H         1 <0>         0.1313
     40 H5          1.1388    3.1630    0.0081 H         1 <0>         0.1353
     41 H6          3.3028    2.0064   -0.0198 H         1 <0>         0.1294
     42 H7         -0.9246   -0.5587    0.0082 H         1 <0>         0.1150
     43 H8          3.5346   -3.0459   -0.0490 H         1 <0>         0.1791
     44 H9          1.1742   -4.1414    0.4036 H         1 <0>         0.1217
     45 H10        -0.2127   -3.0396    0.5787 H         1 <0>         0.0999
     46 H11        -0.0618   -5.6715   -0.9910 H         1 <0>         0.1138
     47 H12        -1.5405   -4.6834   -0.9195 H         1 <0>         0.0920
     48 H13        -1.6739   -6.1971   -5.1517 H         1 <0>         0.1483
     49 H14        -3.7916   -9.4781   -3.3784 H         1 <0>         0.1665
     50 H15        -1.8556   -6.7582   -0.9157 H         1 <0>         0.1574
     51 H16        -2.1477   -6.8166   -6.8164 H         1 <0>         0.1343
     52 H17        -2.7842   -7.6231   -9.0431 H         1 <0>         0.1357
     53 H18        -4.2668  -10.0831   -5.0285 H         1 <0>         0.1360
     54 H19        -4.6541  -12.1013   -7.3217 H         1 <0>         0.1310
     55 H20        -4.2017   -9.6435  -10.3451 H         1 <0>         0.4193
     56 H21        -6.8960   -8.9359   -7.1537 H         1 <0>         0.1318
     57 H22        -9.3110   -9.6297   -6.2005 H         1 <0>         0.1387
     58 H23        -9.3497  -12.2406   -5.9749 H         1 <0>         0.1694
     59 H24         0.0090   -1.6300   -1.9793 H         1 <0>         0.4380
     60 H25        -0.8356   -2.6756   -2.9322 H         1 <0>         0.4392
     61 H26        -1.3700   -2.3311   -1.4122 H         1 <0>         0.4300
@<TRIPOS>BOND
     1    1    6 ar
     2    1    2 ar
     3    1   39 1
     4    2    3 ar
     5    2   40 1
     6    3    4 ar
     7    3   41 1
     8    4    9 1
     9    4    5 ar
    10    5    6 ar
    11    5    7 1
    12    6   42 1
    13    7    8 2
    14    7   11 1
    15    8    9 1
    16    8   43 1
    17    9   10 1
    18   11   12 1
    19   11   44 1
    20   11   45 1
    21   12   13 1
    22   12   14 1
    23   12   38 1
    24   14   15 1
    25   14   46 1
    26   14   47 1
    27   15   16 1
    28   16   21 ar
    29   16   17 ar
    30   17   18 ar
    31   17   48 1
    32   18   19 ar
    33   18   22 1
    34   19   20 ar
    35   19   49 1
    36   20   21 ar
    37   21   50 1
    38   22   27 ar
    39   22   23 ar
    40   23   24 ar
    41   23   51 1
    42   24   25 ar
    43   24   52 1
    44   25   31 1
    45   25   26 ar
    46   26   27 ar
    47   26   28 1
    48   27   53 1
    49   28   29 1
    50   28   32 1
    51   28   54 1
    52   29   30 2
    53   29   31 am
    54   31   55 1
    55   32   36 1
    56   32   33 2
    57   33   34 1
    58   33   56 1
    59   34   35 2
    60   34   57 1
    61   35   36 1
    62   35   58 1
    63   36   37 1
    64   38   59 1
    65   38   60 1
    66   38   61 1
@<TRIPOS>MOLECULE
CHEMBL576348
   61    66     0     0     0
SMALL
USER_CHARGES

@<TRIPOS>ATOM
      1 C1         -0.0165    1.3620    0.0095 C.ar      1 <0>        -0.1191
      2 C2          1.1697    2.0834    0.0021 C.ar      1 <0>        -0.0932
      3 C3          2.3856    1.4362   -0.0134 C.ar      1 <0>        -0.1110
      4 C4          2.4281    0.0456   -0.0212 C.ar      1 <0>         0.0986
      5 C5          1.2234   -0.6807   -0.0132 C.ar      1 <0>        -0.1171
      6 C6          0.0021   -0.0041    0.0020 C.ar      1 <0>        -0.1141
      7 C7          1.6036   -2.0953   -0.0245 C.2       1 <0>        -0.2377
      8 C8          2.9451   -2.1410   -0.0380 C.2       1 <0>         0.1040
      9 N1          3.4551   -0.8713   -0.0363 N.pl3     1 <0>        -0.5844
     10 H1          4.3995   -0.6501   -0.0442 H         1 <0>         0.4265
     11 C9          0.6664   -3.2754   -0.0210 C.3       1 <0>        -0.0555
     12 C10         0.2361   -3.5891   -1.4554 C.3       1 <0>         0.0434
     13 H2          1.1200   -3.7379   -2.0756 H         1 <0>         0.1530
     14 C11        -0.6144   -4.8610   -1.4661 C.3       1 <0>         0.0264
     15 O1         -0.9189   -5.2190   -2.8156 O.3       1 <0>        -0.3227
     16 C12        -1.6731   -6.3340   -3.0030 C.ar      1 <0>         0.0698
     17 C13        -2.0063   -6.7503   -4.2858 C.ar      1 <0>        -0.0983
     18 C14        -2.7829   -7.9025   -4.4264 C.ar      1 <0>        -0.0333
     19 C15        -3.1908   -8.5858   -3.2820 C.ar      1 <0>         0.0859
     20 N2         -2.8519   -8.1548   -2.0846 N.ar      1 <0>        -0.4378
     21 C16        -2.1151   -7.0742   -1.9153 C.ar      1 <0>         0.0190
     22 C17        -3.1680   -8.3915   -5.7731 C.ar      1 <0>        -0.0837
     23 C18        -2.7522   -7.7062   -6.9137 C.ar      1 <0>        -0.0602
     24 C19        -3.1096   -8.1591   -8.1638 C.ar      1 <0>        -0.1374
     25 C20        -3.8906   -9.3070   -8.2996 C.ar      1 <0>         0.1696
     26 C21        -4.3012   -9.9855   -7.1577 C.ar      1 <0>        -0.1247
     27 C22        -3.9438   -9.5432   -5.9064 C.ar      1 <0>        -0.0304
     28 C23        -5.1170  -11.1654   -7.6346 C.3       1 <0>        -0.0089
     29 C24        -5.0956  -11.0414   -9.1432 C.2       1 <0>         0.5387
     30 O2         -5.6318  -11.7876   -9.9349 O.2       1 <0>        -0.4803
     31 N3         -4.3713   -9.9496   -9.4405 N.am      1 <0>        -0.6584
     32 C25        -4.4770  -12.4593   -7.2020 C.2       1 <0>         0.0159
     33 C26        -3.1523  -12.6919   -7.1036 C.2       1 <0>        -0.1699
     34 C27        -2.9889  -14.0216   -6.6674 C.2       1 <0>        -0.2015
     35 C28        -4.2199  -14.5509   -6.5158 C.2       1 <0>         0.0046
     36 N4         -5.1375  -13.5948   -6.8368 N.pl3     1 <0>        -0.5489
     37 H3         -6.1009  -13.7050   -6.8120 H         1 <0>         0.4164
     38 N5         -0.5518   -2.4687   -1.9863 N.4       1 <0>        -0.6362
     39 H4         -0.9613    1.8849    0.0259 H         1 <0>         0.1312
     40 H5          1.1388    3.1630    0.0081 H         1 <0>         0.1352
     41 H6          3.3028    2.0064   -0.0198 H         1 <0>         0.1294
     42 H7         -0.9246   -0.5587    0.0082 H         1 <0>         0.1149
     43 H8          3.5346   -3.0459   -0.0490 H         1 <0>         0.1792
     44 H9          1.1742   -4.1414    0.4036 H         1 <0>         0.1218
     45 H10        -0.2127   -3.0396    0.5787 H         1 <0>         0.0998
     46 H11        -0.0618   -5.6715   -0.9910 H         1 <0>         0.1139
     47 H12        -1.5405   -4.6834   -0.9195 H         1 <0>         0.0919
     48 H13        -1.6739   -6.1971   -5.1517 H         1 <0>         0.1482
     49 H14        -3.7916   -9.4781   -3.3784 H         1 <0>         0.1665
     50 H15        -1.8556   -6.7582   -0.9157 H         1 <0>         0.1574
     51 H16        -2.1477   -6.8166   -6.8164 H         1 <0>         0.1343
     52 H17        -2.7842   -7.6231   -9.0431 H         1 <0>         0.1357
     53 H18        -4.2668  -10.0831   -5.0285 H         1 <0>         0.1360
     54 H19        -6.1386  -11.0996   -7.2604 H         1 <0>         0.1309
     55 H20        -4.2017   -9.6435  -10.3451 H         1 <0>         0.4193
     56 H21        -2.3620  -11.9884   -7.3199 H         1 <0>         0.1320
     57 H22        -2.0503  -14.5247   -6.4879 H         1 <0>         0.1388
     58 H23        -4.4410  -15.5572   -6.1919 H         1 <0>         0.1694
     59 H24         0.0090   -1.6300   -1.9793 H         1 <0>         0.4380
     60 H25        -0.8356   -2.6756   -2.9322 H         1 <0>         0.4392
     61 H26        -1.3700   -2.3311   -1.4122 H         1 <0>         0.4299
@<TRIPOS>BOND
     1    1    6 ar
     2    1    2 ar
     3    1   39 1
     4    2    3 ar
     5    2   40 1
     6    3    4 ar
     7    3   41 1
     8    4    9 1
     9    4    5 ar
    10    5    6 ar
    11    5    7 1
    12    6   42 1
    13    7    8 2
    14    7   11 1
    15    8    9 1
    16    8   43 1
    17    9   10 1
    18   11   12 1
    19   11   44 1
    20   11   45 1
    21   12   13 1
    22   12   14 1
    23   12   38 1
    24   14   15 1
    25   14   46 1
    26   14   47 1
    27   15   16 1
    28   16   21 ar
    29   16   17 ar
    30   17   18 ar
    31   17   48 1
    32   18   19 ar
    33   18   22 1
    34   19   20 ar
    35   19   49 1
    36   20   21 ar
    37   21   50 1
    38   22   27 ar
    39   22   23 ar
    40   23   24 ar
    41   23   51 1
    42   24   25 ar
    43   24   52 1
    44   25   31 1
    45   25   26 ar
    46   26   27 ar
    47   26   28 1
    48   27   53 1
    49   28   29 1
    50   28   32 1
    51   28   54 1
    52   29   30 2
    53   29   31 am
    54   31   55 1
    55   32   36 1
    56   32   33 2
    57   33   34 1
    58   33   56 1
    59   34   35 2
    60   34   57 1
    61   35   36 1
    62   35   58 1
    63   36   37 1
    64   38   59 1
    65   38   60 1
    66   38   61 1
@<TRIPOS>MOLECULE
CHEMBL575385
   52    56     0     0     0
SMALL
USER_CHARGES

@<TRIPOS>ATOM
      1 C1         -0.0165    1.3620    0.0095 C.ar      1 <0>        -0.1189
      2 C2          1.1697    2.0834    0.0021 C.ar      1 <0>        -0.0931
      3 C3          2.3856    1.4362   -0.0134 C.ar      1 <0>        -0.1109
      4 C4          2.4281    0.0456   -0.0212 C.ar      1 <0>         0.0986
      5 C5          1.2234   -0.6807   -0.0132 C.ar      1 <0>        -0.1171
      6 C6          0.0021   -0.0041    0.0020 C.ar      1 <0>        -0.1142
      7 C7          1.6036   -2.0953   -0.0245 C.2       1 <0>        -0.2381
      8 C8          2.9451   -2.1410   -0.0380 C.2       1 <0>         0.1042
      9 N1          3.4551   -0.8713   -0.0363 N.pl3     1 <0>        -0.5843
     10 H1          4.3995   -0.6501   -0.0442 H         1 <0>         0.4266
     11 C9          0.6664   -3.2754   -0.0210 C.3       1 <0>        -0.0554
     12 C10         0.2361   -3.5891   -1.4554 C.3       1 <0>         0.0433
     13 H2          1.1200   -3.7379   -2.0756 H         1 <0>         0.1532
     14 C11        -0.6144   -4.8610   -1.4661 C.3       1 <0>         0.0261
     15 O1         -0.9189   -5.2190   -2.8156 O.3       1 <0>        -0.3218
     16 C12        -1.6731   -6.3340   -3.0030 C.ar      1 <0>         0.0723
     17 C13        -2.0063   -6.7503   -4.2858 C.ar      1 <0>        -0.0972
     18 C14        -2.7828   -7.9025   -4.4264 C.ar      1 <0>        -0.0316
     19 C15        -3.1908   -8.5857   -3.2821 C.ar      1 <0>         0.0870
     20 N2         -2.8515   -8.1550   -2.0846 N.ar      1 <0>        -0.4366
     21 C16        -2.1151   -7.0742   -1.9153 C.ar      1 <0>         0.0224
     22 C17        -3.1680   -8.3915   -5.7732 C.ar      1 <0>        -0.1368
     23 C18        -3.9518   -9.5437   -5.9183 C.ar      1 <0>        -0.0036
     24 C19        -4.2792   -9.9508   -7.1901 C.ar      1 <0>        -0.1833
     25 C20        -3.8385   -9.2302   -8.2967 C.ar      1 <0>         0.3704
     26 N3         -3.0959   -8.1406   -8.1168 N.ar      1 <0>        -0.4998
     27 C21        -2.7629   -7.7116   -6.9186 C.ar      1 <0>         0.1658
     28 N4         -4.2908   -9.8298   -9.4672 N.am      1 <0>        -0.6457
     29 C22        -5.0234  -10.9305   -9.2299 C.2       1 <0>         0.5360
     30 O2         -5.5400  -11.6453  -10.0623 O.2       1 <0>        -0.4771
     31 C23        -5.0834  -11.1106   -7.7276 C.3       1 <0>        -0.1134
     32 N5         -0.5518   -2.4687   -1.9863 N.4       1 <0>        -0.6364
     33 H3         -0.9613    1.8849    0.0259 H         1 <0>         0.1312
     34 H4          1.1388    3.1630    0.0081 H         1 <0>         0.1353
     35 H5          3.3028    2.0064   -0.0198 H         1 <0>         0.1295
     36 H6         -0.9246   -0.5587    0.0082 H         1 <0>         0.1148
     37 H7          3.5346   -3.0459   -0.0490 H         1 <0>         0.1792
     38 H8          1.1742   -4.1414    0.4036 H         1 <0>         0.1218
     39 H9         -0.2127   -3.0396    0.5787 H         1 <0>         0.0999
     40 H10        -0.0618   -5.6715   -0.9910 H         1 <0>         0.1144
     41 H11        -1.5405   -4.6834   -0.9195 H         1 <0>         0.0925
     42 H12        -1.6739   -6.1971   -5.1517 H         1 <0>         0.1496
     43 H13        -3.7919   -9.4778   -3.3785 H         1 <0>         0.1670
     44 H14        -1.8556   -6.7582   -0.9157 H         1 <0>         0.1591
     45 H15        -4.2894  -10.0973   -5.0546 H         1 <0>         0.1500
     46 H16        -2.1618   -6.8196   -6.8220 H         1 <0>         0.1665
     47 H17        -4.0987   -9.4911  -10.3557 H         1 <0>         0.4226
     48 H18        -4.6289  -12.0580   -7.4376 H         1 <0>         0.1342
     49 H19        -6.1140  -11.0565   -7.3768 H         1 <0>         0.1341
     50 H20        -1.3700   -2.3311   -1.4122 H         1 <0>         0.4300
     51 H21         0.0090   -1.6300   -1.9793 H         1 <0>         0.4384
     52 H22        -0.8356   -2.6756   -2.9322 H         1 <0>         0.4393
@<TRIPOS>BOND
     1    1    6 ar
     2    1    2 ar
     3    1   33 1
     4    2    3 ar
     5    2   34 1
     6    3    4 ar
     7    3   35 1
     8    4    9 1
     9    4    5 ar
    10    5    6 ar
    11    5    7 1
    12    6   36 1
    13    7    8 2
    14    7   11 1
    15    8    9 1
    16    8   37 1
    17    9   10 1
    18   11   12 1
    19   11   38 1
    20   11   39 1
    21   12   13 1
    22   12   14 1
    23   12   32 1
    24   14   15 1
    25   14   40 1
    26   14   41 1
    27   15   16 1
    28   16   21 ar
    29   16   17 ar
    30   17   18 ar
    31   17   42 1
    32   18   19 ar
    33   18   22 1
    34   19   20 ar
    35   19   43 1
    36   20   21 ar
    37   21   44 1
    38   22   27 ar
    39   22   23 ar
    40   23   24 ar
    41   23   45 1
    42   24   31 1
    43   24   25 ar
    44   25   26 ar
    45   25   28 1
    46   26   27 ar
    47   27   46 1
    48   28   29 am
    49   28   47 1
    50   29   30 2
    51   29   31 1
    52   31   48 1
    53   31   49 1
    54   32   50 1
    55   32   51 1
    56   32   52 1
@<TRIPOS>MOLECULE
CHEMBL579053
   61    66     0     0     0
SMALL
USER_CHARGES

@<TRIPOS>ATOM
      1 C1         -0.0165    1.3620    0.0095 C.ar      1 <0>        -0.1175
      2 C2          1.1697    2.0834    0.0021 C.ar      1 <0>        -0.0925
      3 C3          2.3856    1.4362   -0.0134 C.ar      1 <0>        -0.1092
      4 C4          2.4281    0.0456   -0.0212 C.ar      1 <0>         0.0987
      5 C5          1.2234   -0.6807   -0.0132 C.ar      1 <0>        -0.1174
      6 C6          0.0021   -0.0041    0.0020 C.ar      1 <0>        -0.1164
      7 C7          1.6036   -2.0953   -0.0245 C.2       1 <0>        -0.2419
      8 C8          2.9451   -2.1410   -0.0380 C.2       1 <0>         0.1062
      9 N1          3.4551   -0.8713   -0.0363 N.pl3     1 <0>        -0.5833
     10 H1          4.3995   -0.6501   -0.0442 H         1 <0>         0.4275
     11 C9          0.6664   -3.2754   -0.0210 C.3       1 <0>        -0.0546
     12 C10         0.2361   -3.5891   -1.4554 C.3       1 <0>         0.0435
     13 H2          1.1200   -3.7379   -2.0756 H         1 <0>         0.1539
     14 C11        -0.6144   -4.8610   -1.4661 C.3       1 <0>         0.0255
     15 O1         -0.9189   -5.2190   -2.8156 O.3       1 <0>        -0.3206
     16 C12        -1.6731   -6.3340   -3.0030 C.ar      1 <0>         0.0765
     17 C13        -2.0063   -6.7503   -4.2858 C.ar      1 <0>        -0.0915
     18 C14        -2.7829   -7.9025   -4.4264 C.ar      1 <0>        -0.0553
     19 C15        -3.1908   -8.5858   -3.2820 C.ar      1 <0>         0.0871
     20 N2         -2.8519   -8.1548   -2.0846 N.ar      1 <0>        -0.4360
     21 C16        -2.1151   -7.0742   -1.9153 C.ar      1 <0>         0.0317
     22 C17        -3.1680   -8.3915   -5.7731 C.ar      1 <0>        -0.0609
     23 C18        -2.7522   -7.7062   -6.9137 C.ar      1 <0>        -0.0448
     24 C19        -3.1096   -8.1591   -8.1638 C.ar      1 <0>        -0.1222
     25 C20        -3.8906   -9.3070   -8.2996 C.ar      1 <0>         0.1698
     26 C21        -4.3012   -9.9855   -7.1577 C.ar      1 <0>        -0.1769
     27 C22        -3.9438   -9.5432   -5.9064 C.ar      1 <0>        -0.0369
     28 C23        -5.1170  -11.1654   -7.6346 C.3       1 <0>        -0.0240
     29 C24        -5.0956  -11.0414   -9.1432 C.2       1 <0>         0.5345
     30 O2         -5.6318  -11.7876   -9.9349 O.2       1 <0>        -0.4525
     31 N3         -4.3713   -9.9496   -9.4405 N.am      1 <0>        -0.6488
     32 C25        -6.5295  -11.0745   -7.1172 C.cat     1 <0>         0.3195
     33 N4         -7.2185   -9.9568   -6.9517 N.pl3     1 <0>        -0.4753
     34 H3         -6.9013   -9.0600   -7.1415 H         1 <0>         0.4636
     35 C26        -8.4382  -10.2796   -6.4733 C.2       1 <0>         0.0246
     36 C27        -8.4794  -11.6212   -6.3500 C.2       1 <0>         0.0314
     37 N5         -7.2860  -12.0996   -6.7594 N.pl3     1 <0>        -0.4700
     38 N6         -0.5518   -2.4687   -1.9863 N.4       1 <0>        -0.6365
     39 H4         -0.9613    1.8849    0.0259 H         1 <0>         0.1315
     40 H5          1.1388    3.1630    0.0081 H         1 <0>         0.1364
     41 H6          3.3028    2.0064   -0.0198 H         1 <0>         0.1307
     42 H7         -0.9246   -0.5587    0.0082 H         1 <0>         0.1137
     43 H8          3.5346   -3.0459   -0.0490 H         1 <0>         0.1790
     44 H9          1.1742   -4.1414    0.4036 H         1 <0>         0.1219
     45 H10        -0.2127   -3.0396    0.5787 H         1 <0>         0.1000
     46 H11        -0.0618   -5.6715   -0.9910 H         1 <0>         0.1160
     47 H12        -1.5405   -4.6834   -0.9195 H         1 <0>         0.0939
     48 H13        -1.6739   -6.1971   -5.1517 H         1 <0>         0.1508
     49 H14        -3.7916   -9.4781   -3.3784 H         1 <0>         0.1621
     50 H15        -1.8556   -6.7582   -0.9157 H         1 <0>         0.1632
     51 H16        -2.1477   -6.8166   -6.8164 H         1 <0>         0.1457
     52 H17        -2.7842   -7.6231   -9.0431 H         1 <0>         0.1477
     53 H18        -4.2668  -10.0831   -5.0285 H         1 <0>         0.1411
     54 H19        -4.6541  -12.1013   -7.3217 H         1 <0>         0.1780
     55 H20        -4.2017   -9.6435  -10.3451 H         1 <0>         0.4342
     56 H21        -9.2342   -9.5903   -6.2333 H         1 <0>         0.2330
     57 H22        -9.3145  -12.2055   -5.9929 H         1 <0>         0.2347
     58 H23        -1.3700   -2.3311   -1.4122 H         1 <0>         0.4301
     59 H24         0.0090   -1.6300   -1.9793 H         1 <0>         0.4405
     60 H25        -0.8356   -2.6756   -2.9322 H         1 <0>         0.4375
     61 H26        -7.0265  -13.0339   -6.7850 H         1 <0>         0.4695
@<TRIPOS>BOND
     1    1    6 ar
     2    1    2 ar
     3    1   39 1
     4    2    3 ar
     5    2   40 1
     6    3    4 ar
     7    3   41 1
     8    4    9 1
     9    4    5 ar
    10    5    6 ar
    11    5    7 1
    12    6   42 1
    13    7    8 2
    14    7   11 1
    15    8    9 1
    16    8   43 1
    17    9   10 1
    18   11   12 1
    19   11   44 1
    20   11   45 1
    21   12   13 1
    22   12   14 1
    23   12   38 1
    24   14   15 1
    25   14   46 1
    26   14   47 1
    27   15   16 1
    28   16   21 ar
    29   16   17 ar
    30   17   18 ar
    31   17   48 1
    32   18   19 ar
    33   18   22 1
    34   19   20 ar
    35   19   49 1
    36   20   21 ar
    37   21   50 1
    38   22   27 ar
    39   22   23 ar
    40   23   24 ar
    41   23   51 1
    42   24   25 ar
    43   24   52 1
    44   25   31 1
    45   25   26 ar
    46   26   27 ar
    47   26   28 1
    48   27   53 1
    49   28   29 1
    50   28   32 1
    51   28   54 1
    52   29   30 2
    53   29   31 am
    54   31   55 1
    55   32   37 2
    56   32   33 1
    57   33   34 1
    58   33   35 1
    59   35   36 2
    60   35   56 1
    61   36   37 1
    62   36   57 1
    63   37   61 1
    64   38   58 1
    65   38   59 1
    66   38   60 1
@<TRIPOS>MOLECULE
CHEMBL579053
   61    66     0     0     0
SMALL
USER_CHARGES

@<TRIPOS>ATOM
      1 C1         -0.0165    1.3620    0.0095 C.ar      1 <0>        -0.1172
      2 C2          1.1697    2.0834    0.0021 C.ar      1 <0>        -0.0922
      3 C3          2.3856    1.4362   -0.0134 C.ar      1 <0>        -0.1095
      4 C4          2.4281    0.0456   -0.0212 C.ar      1 <0>         0.0987
      5 C5          1.2234   -0.6807   -0.0132 C.ar      1 <0>        -0.1176
      6 C6          0.0021   -0.0041    0.0020 C.ar      1 <0>        -0.1163
      7 C7          1.6036   -2.0953   -0.0245 C.2       1 <0>        -0.2416
      8 C8          2.9451   -2.1410   -0.0380 C.2       1 <0>         0.1056
      9 N1          3.4551   -0.8713   -0.0363 N.pl3     1 <0>        -0.5834
     10 H1          4.3995   -0.6501   -0.0442 H         1 <0>         0.4274
     11 C9          0.6664   -3.2754   -0.0210 C.3       1 <0>        -0.0548
     12 C10         0.2361   -3.5891   -1.4554 C.3       1 <0>         0.0437
     13 H2          1.1200   -3.7379   -2.0756 H         1 <0>         0.1535
     14 C11        -0.6144   -4.8610   -1.4661 C.3       1 <0>         0.0254
     15 O1         -0.9189   -5.2190   -2.8156 O.3       1 <0>        -0.3206
     16 C12        -1.6731   -6.3340   -3.0030 C.ar      1 <0>         0.0766
     17 C13        -2.0063   -6.7503   -4.2858 C.ar      1 <0>        -0.0915
     18 C14        -2.7829   -7.9025   -4.4264 C.ar      1 <0>        -0.0554
     19 C15        -3.1908   -8.5858   -3.2820 C.ar      1 <0>         0.0871
     20 N2         -2.8519   -8.1548   -2.0846 N.ar      1 <0>        -0.4360
     21 C16        -2.1151   -7.0742   -1.9153 C.ar      1 <0>         0.0317
     22 C17        -3.1680   -8.3915   -5.7731 C.ar      1 <0>        -0.0605
     23 C18        -2.7522   -7.7062   -6.9137 C.ar      1 <0>        -0.0450
     24 C19        -3.1096   -8.1591   -8.1638 C.ar      1 <0>        -0.1220
     25 C20        -3.8906   -9.3070   -8.2996 C.ar      1 <0>         0.1697
     26 C21        -4.3012   -9.9855   -7.1577 C.ar      1 <0>        -0.1767
     27 C22        -3.9438   -9.5432   -5.9064 C.ar      1 <0>        -0.0377
     28 C23        -5.1170  -11.1654   -7.6346 C.3       1 <0>        -0.0237
     29 C24        -5.0956  -11.0414   -9.1432 C.2       1 <0>         0.5346
     30 O2         -5.6318  -11.7876   -9.9349 O.2       1 <0>        -0.4525
     31 N3         -4.3713   -9.9496   -9.4405 N.am      1 <0>        -0.6488
     32 C25        -4.4770  -12.4593   -7.2020 C.cat     1 <0>         0.3188
     33 N4         -3.1758  -12.6810   -7.1076 N.pl3     1 <0>        -0.4752
     34 H3         -2.4742  -12.0408   -7.3049 H         1 <0>         0.4637
     35 C26        -2.9929  -13.9509   -6.6897 C.2       1 <0>         0.0250
     36 C27        -4.2130  -14.5012   -6.5305 C.2       1 <0>         0.0314
     37 N5         -5.1242  -13.5582   -6.8487 N.pl3     1 <0>        -0.4700
     38 N6         -0.5518   -2.4687   -1.9863 N.4       1 <0>        -0.6366
     39 H4         -0.9613    1.8849    0.0259 H         1 <0>         0.1318
     40 H5          1.1388    3.1630    0.0081 H         1 <0>         0.1365
     41 H6          3.3028    2.0064   -0.0198 H         1 <0>         0.1306
     42 H7         -0.9246   -0.5587    0.0082 H         1 <0>         0.1140
     43 H8          3.5346   -3.0459   -0.0490 H         1 <0>         0.1787
     44 H9          1.1742   -4.1414    0.4036 H         1 <0>         0.1216
     45 H10        -0.2127   -3.0396    0.5787 H         1 <0>         0.1002
     46 H11        -0.0618   -5.6715   -0.9910 H         1 <0>         0.1157
     47 H12        -1.5405   -4.6834   -0.9195 H         1 <0>         0.0943
     48 H13        -1.6739   -6.1971   -5.1517 H         1 <0>         0.1508
     49 H14        -3.7916   -9.4781   -3.3784 H         1 <0>         0.1621
     50 H15        -1.8556   -6.7582   -0.9157 H         1 <0>         0.1632
     51 H16        -2.1477   -6.8166   -6.8164 H         1 <0>         0.1457
     52 H17        -2.7842   -7.6231   -9.0431 H         1 <0>         0.1477
     53 H18        -4.2668  -10.0831   -5.0285 H         1 <0>         0.1410
     54 H19        -6.1386  -11.0996   -7.2604 H         1 <0>         0.1779
     55 H20        -4.2017   -9.6435  -10.3451 H         1 <0>         0.4342
     56 H21        -2.0443  -14.4367   -6.5153 H         1 <0>         0.2332
     57 H22        -4.4226  -15.5094   -6.2050 H         1 <0>         0.2348
     58 H23        -1.3700   -2.3311   -1.4122 H         1 <0>         0.4305
     59 H24         0.0090   -1.6300   -1.9793 H         1 <0>         0.4404
     60 H25        -0.8356   -2.6756   -2.9322 H         1 <0>         0.4377
     61 H26        -6.0877  -13.6676   -6.8247 H         1 <0>         0.4694
@<TRIPOS>BOND
     1    1    6 ar
     2    1    2 ar
     3    1   39 1
     4    2    3 ar
     5    2   40 1
     6    3    4 ar
     7    3   41 1
     8    4    9 1
     9    4    5 ar
    10    5    6 ar
    11    5    7 1
    12    6   42 1
    13    7    8 2
    14    7   11 1
    15    8    9 1
    16    8   43 1
    17    9   10 1
    18   11   12 1
    19   11   44 1
    20   11   45 1
    21   12   13 1
    22   12   14 1
    23   12   38 1
    24   14   15 1
    25   14   46 1
    26   14   47 1
    27   15   16 1
    28   16   21 ar
    29   16   17 ar
    30   17   18 ar
    31   17   48 1
    32   18   19 ar
    33   18   22 1
    34   19   20 ar
    35   19   49 1
    36   20   21 ar
    37   21   50 1
    38   22   27 ar
    39   22   23 ar
    40   23   24 ar
    41   23   51 1
    42   24   25 ar
    43   24   52 1
    44   25   31 1
    45   25   26 ar
    46   26   27 ar
    47   26   28 1
    48   27   53 1
    49   28   29 1
    50   28   32 1
    51   28   54 1
    52   29   30 2
    53   29   31 am
    54   31   55 1
    55   32   37 2
    56   32   33 1
    57   33   34 1
    58   33   35 1
    59   35   36 2
    60   35   56 1
    61   36   37 1
    62   36   57 1
    63   37   61 1
    64   38   58 1
    65   38   59 1
    66   38   60 1
@<TRIPOS>MOLECULE
CHEMBL595708
   57    61     0     0     0
SMALL
USER_CHARGES

@<TRIPOS>ATOM
      1 C1         -0.0184    1.5028    0.0103 C.3       1 <0>        -0.0773
      2 C2          0.0021   -0.0041    0.0020 C.2       1 <0>         0.1039
      3 C3          0.0083   -0.8581   -1.1821 C.ar      1 <0>        -0.1777
      4 C4         -0.0017   -0.6081   -2.5572 C.ar      1 <0>        -0.0093
      5 C5          0.0084   -1.6745   -3.4436 C.ar      1 <0>        -0.1015
      6 C6          0.0280   -2.9904   -2.9628 C.ar      1 <0>        -0.0349
      7 C7          0.0374   -3.2415   -1.6232 C.ar      1 <0>        -0.1363
      8 C8          0.0285   -2.1861   -0.7123 C.ar      1 <0>         0.1460
      9 N1          0.0337   -2.1193    0.6567 N.pl3     1 <0>        -0.5052
     10 H1          0.0468   -2.8812    1.2569 H         1 <0>         0.4440
     11 N2          0.0230   -0.7773    1.0497 N.2       1 <0>        -0.2442
     12 C9         -0.0020   -1.4215   -4.9039 C.ar      1 <0>        -0.0161
     13 C10        -0.9328   -0.5479   -5.4657 C.ar      1 <0>        -0.0881
     14 C11        -0.9018   -0.3441   -6.8402 C.ar      1 <0>         0.0687
     15 C12         0.0458   -1.0095   -7.6078 C.ar      1 <0>         0.0329
     16 N3          0.9149   -1.8299   -7.0552 N.ar      1 <0>        -0.4245
     17 C13         0.9303   -2.0539   -5.7461 C.ar      1 <0>         0.1938
     18 C14         1.9277   -2.9765   -5.1725 C.2       1 <0>         0.0058
     19 C15         2.4120   -4.1006   -5.7682 C.2       1 <0>        -0.1481
     20 C16         3.3350   -4.6700   -4.8697 C.2       1 <0>        -0.2172
     21 C17         3.3693   -3.8752   -3.7815 C.2       1 <0>        -0.0154
     22 O1          2.5225   -2.8503   -3.9702 O.3       1 <0>        -0.1561
     23 O2         -1.7912    0.4988   -7.4283 O.3       1 <0>        -0.3200
     24 C18        -1.6963    0.6563   -8.8454 C.3       1 <0>         0.0257
     25 C19        -2.7707    1.6354   -9.3228 C.3       1 <0>         0.0437
     26 H2         -3.7496    1.2921   -8.9883 H         1 <0>         0.1558
     27 C20        -2.7509    1.7090  -10.8509 C.3       1 <0>        -0.0972
     28 C21        -3.8870    2.5771  -11.3268 C.ar      1 <0>        -0.1305
     29 C22        -5.1210    2.0149  -11.5952 C.ar      1 <0>        -0.1029
     30 C23        -6.1632    2.8112  -12.0317 C.ar      1 <0>        -0.1053
     31 C24        -5.9715    4.1699  -12.1994 C.ar      1 <0>        -0.1013
     32 C25        -4.7378    4.7323  -11.9302 C.ar      1 <0>        -0.1074
     33 C26        -3.6968    3.9366  -11.4896 C.ar      1 <0>        -0.1401
     34 N4         -2.5020    2.9675   -8.7649 N.4       1 <0>        -0.6367
     35 H3          1.0042    1.8801    0.0026 H         1 <0>         0.0856
     36 H4         -0.5455    1.8639   -0.8728 H         1 <0>         0.0801
     37 H5         -0.5286    1.8543    0.9071 H         1 <0>         0.0829
     38 H6         -0.0174    0.4068   -2.9262 H         1 <0>         0.1291
     39 H7          0.0353   -3.8143   -3.6610 H         1 <0>         0.1282
     40 H8          0.0517   -4.2608   -1.2663 H         1 <0>         0.1322
     41 H9         -1.6601   -0.0424   -4.8478 H         1 <0>         0.1527
     42 H10         0.0698   -0.8515   -8.6759 H         1 <0>         0.1635
     43 H11         2.1407   -4.4822   -6.7414 H         1 <0>         0.1535
     44 H12         3.9073   -5.5729   -5.0235 H         1 <0>         0.1551
     45 H13         3.9798   -4.0341   -2.9049 H         1 <0>         0.2074
     46 H14        -0.7108    1.0445   -9.1027 H         1 <0>         0.0938
     47 H15        -1.8440   -0.3094   -9.3290 H         1 <0>         0.1153
     48 H16        -1.8041    2.1359  -11.1819 H         1 <0>         0.1040
     49 H17        -2.8617    0.7066  -11.2644 H         1 <0>         0.1256
     50 H18        -5.2708    0.9534  -11.4642 H         1 <0>         0.1308
     51 H19        -7.1271    2.3718  -12.2421 H         1 <0>         0.1334
     52 H20        -6.7856    4.7920  -12.5412 H         1 <0>         0.1330
     53 H21        -4.5880    5.7938  -12.0616 H         1 <0>         0.1326
     54 H22        -2.7340    4.3766  -11.2756 H         1 <0>         0.1229
     55 H23        -3.2105    3.6132   -9.0798 H         1 <0>         0.4367
     56 H24        -2.5150    2.9189   -7.7572 H         1 <0>         0.4424
     57 H25        -1.5958    3.2853   -9.0746 H         1 <0>         0.4324
@<TRIPOS>BOND
     1    1    2 1
     2    1   35 1
     3    1   36 1
     4    1   37 1
     5    2   11 2
     6    2    3 1
     7    3    8 ar
     8    3    4 ar
     9    4    5 ar
    10    4   38 1
    11    5    6 ar
    12    5   12 1
    13    6    7 ar
    14    6   39 1
    15    7    8 ar
    16    7   40 1
    17    8    9 1
    18    9   10 1
    19    9   11 1
    20   12   17 ar
    21   12   13 ar
    22   13   14 ar
    23   13   41 1
    24   14   15 ar
    25   14   23 1
    26   15   16 ar
    27   15   42 1
    28   16   17 ar
    29   17   18 1
    30   18   22 1
    31   18   19 2
    32   19   20 1
    33   19   43 1
    34   20   21 2
    35   20   44 1
    36   21   22 1
    37   21   45 1
    38   23   24 1
    39   24   25 1
    40   24   46 1
    41   24   47 1
    42   25   26 1
    43   25   27 1
    44   25   34 1
    45   27   28 1
    46   27   48 1
    47   27   49 1
    48   28   33 ar
    49   28   29 ar
    50   29   30 ar
    51   29   50 1
    52   30   31 ar
    53   30   51 1
    54   31   32 ar
    55   31   52 1
    56   32   33 ar
    57   32   53 1
    58   33   54 1
    59   34   55 1
    60   34   56 1
    61   34   57 1
@<TRIPOS>MOLECULE
CHEMBL595709
   57    61     0     0     0
SMALL
USER_CHARGES

@<TRIPOS>ATOM
      1 C1         -0.0184    1.5028    0.0103 C.3       1 <0>        -0.0778
      2 C2          0.0021   -0.0041    0.0020 C.2       1 <0>         0.1042
      3 C3          0.0084   -0.8581   -1.1821 C.ar      1 <0>        -0.1799
      4 C4         -0.0022   -0.6080   -2.5573 C.ar      1 <0>        -0.0150
      5 C5          0.0081   -1.6742   -3.4435 C.ar      1 <0>        -0.1088
      6 C6          0.0290   -2.9899   -2.9630 C.ar      1 <0>        -0.0417
      7 C7          0.0390   -3.2413   -1.6233 C.ar      1 <0>        -0.1368
      8 C8          0.0294   -2.1860   -0.7124 C.ar      1 <0>         0.1454
      9 N1          0.0351   -2.1193    0.6567 N.pl3     1 <0>        -0.5033
     10 H1          0.0487   -2.8812    1.2569 H         1 <0>         0.4448
     11 N2          0.0230   -0.7772    1.0497 N.2       1 <0>        -0.2430
     12 C9         -0.0035   -1.4210   -4.9043 C.ar      1 <0>        -0.0318
     13 C10        -0.9355   -0.5478   -5.4653 C.ar      1 <0>        -0.0846
     14 C11        -0.9051   -0.3436   -6.8395 C.ar      1 <0>         0.0580
     15 C12         0.0427   -1.0081   -7.6063 C.ar      1 <0>         0.0320
     16 N3          0.9125   -1.8281   -7.0523 N.ar      1 <0>        -0.4335
     17 C13         0.9273   -2.0517   -5.7455 C.ar      1 <0>         0.2009
     18 C14         1.9297   -2.9782   -5.1692 C.2       1 <0>        -0.1600
     19 C15         2.4700   -4.1950   -5.7872 C.2       1 <0>        -0.1833
     20 C16         3.3423   -4.7046   -4.9018 C.2       1 <0>        -0.0334
     21 O1          3.3771   -3.9146   -3.8179 O.3       1 <0>        -0.1725
     22 C17         2.5441   -2.8742   -3.9610 C.2       1 <0>         0.0151
     23 O2         -1.7953    0.4986   -7.4278 O.3       1 <0>        -0.3219
     24 C18        -1.7005    0.6562   -8.8449 C.3       1 <0>         0.0271
     25 C19        -2.7757    1.6345   -9.3223 C.3       1 <0>         0.0437
     26 H2         -3.7544    1.2903   -8.9878 H         1 <0>         0.1554
     27 C20        -2.7559    1.7081  -10.8504 C.3       1 <0>        -0.0972
     28 C21        -3.8928    2.5754  -11.3263 C.ar      1 <0>        -0.1302
     29 C22        -5.1263    2.0121  -11.5947 C.ar      1 <0>        -0.1030
     30 C23        -6.1691    2.8076  -12.0312 C.ar      1 <0>        -0.1053
     31 C24        -5.9786    4.1664  -12.1989 C.ar      1 <0>        -0.1014
     32 C25        -4.7453    4.7299  -11.9296 C.ar      1 <0>        -0.1074
     33 C26        -3.7037    3.9350  -11.4890 C.ar      1 <0>        -0.1401
     34 N4         -2.5081    2.9668   -8.7643 N.4       1 <0>        -0.6364
     35 H3          1.0042    1.8801    0.0026 H         1 <0>         0.0860
     36 H4         -0.5455    1.8639   -0.8728 H         1 <0>         0.0805
     37 H5         -0.5286    1.8543    0.9071 H         1 <0>         0.0831
     38 H6         -0.0187    0.4068   -2.9262 H         1 <0>         0.1310
     39 H7          0.0369   -3.8138   -3.6613 H         1 <0>         0.1335
     40 H8          0.0543   -4.2606   -1.2666 H         1 <0>         0.1339
     41 H9         -1.6631   -0.0432   -4.8469 H         1 <0>         0.1495
     42 H10         0.0672   -0.8505   -8.6745 H         1 <0>         0.1586
     43 H11         2.2173   -4.5988   -6.7565 H         1 <0>         0.1551
     44 H12         3.9220   -5.6053   -5.0401 H         1 <0>         0.2079
     45 H13         2.3861   -2.0877   -3.2379 H         1 <0>         0.2037
     46 H14        -0.7153    1.0452   -9.1021 H         1 <0>         0.0925
     47 H15        -1.8474   -0.3095   -9.3285 H         1 <0>         0.1139
     48 H16        -1.8095    2.1358  -11.1813 H         1 <0>         0.1037
     49 H17        -2.8659    0.7056  -11.2639 H         1 <0>         0.1254
     50 H18        -5.2752    0.9505  -11.4637 H         1 <0>         0.1307
     51 H19        -7.1327    2.3674  -12.2416 H         1 <0>         0.1334
     52 H20        -6.7931    4.7878  -12.5406 H         1 <0>         0.1329
     53 H21        -4.5963    5.7914  -12.0609 H         1 <0>         0.1325
     54 H22        -2.7412    4.3758  -11.2750 H         1 <0>         0.1228
     55 H23        -2.5211    2.9182   -7.7566 H         1 <0>         0.4423
     56 H24        -1.6021    3.2853   -9.0740 H         1 <0>         0.4323
     57 H25        -3.2171    3.6119   -9.0792 H         1 <0>         0.4364
@<TRIPOS>BOND
     1    1    2 1
     2    1   35 1
     3    1   36 1
     4    1   37 1
     5    2   11 2
     6    2    3 1
     7    3    8 ar
     8    3    4 ar
     9    4    5 ar
    10    4   38 1
    11    5    6 ar
    12    5   12 1
    13    6    7 ar
    14    6   39 1
    15    7    8 ar
    16    7   40 1
    17    8    9 1
    18    9   10 1
    19    9   11 1
    20   12   17 ar
    21   12   13 ar
    22   13   14 ar
    23   13   41 1
    24   14   15 ar
    25   14   23 1
    26   15   16 ar
    27   15   42 1
    28   16   17 ar
    29   17   18 1
    30   18   22 2
    31   18   19 1
    32   19   20 2
    33   19   43 1
    34   20   21 1
    35   20   44 1
    36   21   22 1
    37   22   45 1
    38   23   24 1
    39   24   25 1
    40   24   46 1
    41   24   47 1
    42   25   26 1
    43   25   27 1
    44   25   34 1
    45   27   28 1
    46   27   48 1
    47   27   49 1
    48   28   33 ar
    49   28   29 ar
    50   29   30 ar
    51   29   50 1
    52   30   31 ar
    53   30   51 1
    54   31   32 ar
    55   31   52 1
    56   32   33 ar
    57   32   53 1
    58   33   54 1
    59   34   55 1
    60   34   56 1
    61   34   57 1
@<TRIPOS>MOLECULE
CHEMBL178397
   67    72     0     0     0
SMALL
USER_CHARGES

@<TRIPOS>ATOM
      1 C1         -0.1923    0.8121   -1.8506 C.3       1 <0>        -0.0893
      2 C2         -0.0839   -0.3358   -0.8802 C.2       1 <0>         0.0797
      3 C3         -1.0503   -0.4868    0.1386 C.2       1 <0>         0.4835
      4 O1         -1.9703    0.3082    0.2345 O.2       1 <0>        -0.5077
      5 N1         -0.9496   -1.5166    1.0053 N.am      1 <0>        -0.5858
      6 H1         -1.6066   -1.6322    1.7095 H         1 <0>         0.4244
      7 C4          0.0908   -2.3954    0.8774 C.2       1 <0>         0.1958
      8 C5          1.0232   -2.2124   -0.1403 C.2       1 <0>         0.0114
      9 N2          0.9029   -1.1900   -0.9906 N.2       1 <0>        -0.3862
     10 C6          2.1525   -3.1606   -0.2836 C.ar      1 <0>         0.0302
     11 C7          1.9148   -4.5346   -0.3032 C.ar      1 <0>        -0.0937
     12 C8          2.9707   -5.4128   -0.4374 C.ar      1 <0>        -0.0934
     13 C9          4.2630   -4.9326   -0.5525 C.ar      1 <0>        -0.1608
     14 C10         4.5051   -3.5707   -0.5334 C.ar      1 <0>        -0.0881
     15 C11         3.4569   -2.6825   -0.4054 C.ar      1 <0>        -0.0880
     16 C12         5.4117   -5.8970   -0.6989 C.3       1 <0>         0.0450
     17 N3          5.6460   -6.1668   -2.1238 N.4       1 <0>        -0.3854
     18 C13         4.4778   -6.8526   -2.6890 C.3       1 <0>        -0.0048
     19 C14         4.6827   -7.0637   -4.1907 C.3       1 <0>        -0.1653
     20 C15         5.9349   -7.9163   -4.4146 C.3       1 <0>         0.1611
     21 C16         7.1339   -7.2275   -3.7565 C.3       1 <0>        -0.1669
     22 C17         6.8382   -7.0104   -2.2709 C.3       1 <0>         0.0013
     23 N4          6.1800   -8.0588   -5.8519 N.am      1 <0>        -0.5376
     24 C18         6.2151   -9.2590   -6.5578 C.ar      1 <0>         0.0795
     25 C19         6.0494  -10.5852   -6.1886 C.ar      1 <0>        -0.1046
     26 C20         6.1439  -11.5809   -7.1410 C.ar      1 <0>        -0.1030
     27 C21         6.4037  -11.2604   -8.4625 C.ar      1 <0>        -0.0991
     28 C22         6.5707   -9.9424   -8.8397 C.ar      1 <0>        -0.0999
     29 C23         6.4767   -8.9358   -7.8907 C.ar      1 <0>         0.0917
     30 N5          6.5924   -7.5491   -7.9534 N.am      1 <0>        -0.6394
     31 H2          6.7738   -7.0302   -8.7526 H         1 <0>         0.4398
     32 C24         6.4039   -7.0514   -6.7167 C.2       1 <0>         0.6856
     33 O2          6.4346   -5.8706   -6.4243 O.2       1 <0>        -0.5571
     34 C25         0.2243   -3.5290    1.8117 C.ar      1 <0>        -0.0897
     35 C26         1.4435   -3.7735    2.4493 C.ar      1 <0>        -0.0741
     36 C27         1.5607   -4.8350    3.3219 C.ar      1 <0>        -0.1166
     37 C28         0.4747   -5.6570    3.5667 C.ar      1 <0>        -0.0915
     38 C29        -0.7358   -5.4213    2.9386 C.ar      1 <0>        -0.1138
     39 C30        -0.8695   -4.3602    2.0679 C.ar      1 <0>        -0.0933
     40 H3          0.6313    0.7647   -2.5630 H         1 <0>         0.0863
     41 H4         -1.1397    0.7473   -2.3856 H         1 <0>         0.0874
     42 H5         -0.1469    1.7547   -1.3049 H         1 <0>         0.0881
     43 H6          0.9064   -4.9106   -0.2131 H         1 <0>         0.1331
     44 H7          2.7879   -6.4771   -0.4524 H         1 <0>         0.1329
     45 H8          5.5162   -3.2017   -0.6233 H         1 <0>         0.1348
     46 H9          3.6466   -1.6193   -0.3954 H         1 <0>         0.1388
     47 H10         6.3093   -5.4625   -0.2590 H         1 <0>         0.1387
     48 H11         5.1710   -6.8290   -0.1875 H         1 <0>         0.1364
     49 H12         4.3527   -7.8189   -2.2005 H         1 <0>         0.1318
     50 H13         3.5870   -6.2460   -2.5260 H         1 <0>         0.1386
     51 H14         3.8150   -7.5745   -4.6081 H         1 <0>         0.1164
     52 H15         4.8076   -6.0979   -4.6803 H         1 <0>         0.1072
     53 H16         5.7902   -8.9005   -3.9690 H         1 <0>         0.1147
     54 H17         8.0183   -7.8555   -3.8635 H         1 <0>         0.1179
     55 H18         7.3097   -6.2651   -4.2371 H         1 <0>         0.1077
     56 H19         7.6900   -6.5203   -1.7992 H         1 <0>         0.1384
     57 H20         6.6628   -7.9733   -1.7912 H         1 <0>         0.1330
     58 H21         5.8473  -10.8390   -5.1585 H         1 <0>         0.1287
     59 H22         6.0148  -12.6139   -6.8536 H         1 <0>         0.1385
     60 H23         6.4765  -12.0445   -9.2016 H         1 <0>         0.1399
     61 H24         6.7740   -9.6963   -9.8714 H         1 <0>         0.1368
     62 H25         2.2920   -3.1330    2.2589 H         1 <0>         0.1275
     63 H26         2.5024   -5.0254    3.8151 H         1 <0>         0.1317
     64 H27         0.5723   -6.4868    4.2510 H         1 <0>         0.1319
     65 H28        -1.5789   -6.0672    3.1342 H         1 <0>         0.1345
     66 H29        -1.8160   -4.1745    1.5821 H         1 <0>         0.1281
     67 H30         5.7900   -5.2950   -2.6109 H         1 <0>         0.4266
@<TRIPOS>BOND
     1    1    2 1
     2    1   40 1
     3    1   41 1
     4    1   42 1
     5    2    9 2
     6    2    3 1
     7    3    4 2
     8    3    5 am
     9    5    6 1
    10    5    7 1
    11    7    8 2
    12    7   34 1
    13    8    9 1
    14    8   10 1
    15   10   15 ar
    16   10   11 ar
    17   11   12 ar
    18   11   43 1
    19   12   13 ar
    20   12   44 1
    21   13   14 ar
    22   13   16 1
    23   14   15 ar
    24   14   45 1
    25   15   46 1
    26   16   17 1
    27   16   47 1
    28   16   48 1
    29   17   22 1
    30   17   18 1
    31   17   67 1
    32   18   19 1
    33   18   49 1
    34   18   50 1
    35   19   20 1
    36   19   51 1
    37   19   52 1
    38   20   21 1
    39   20   23 1
    40   20   53 1
    41   21   22 1
    42   21   54 1
    43   21   55 1
    44   22   56 1
    45   22   57 1
    46   23   32 am
    47   23   24 1
    48   24   29 ar
    49   24   25 ar
    50   25   26 ar
    51   25   58 1
    52   26   27 ar
    53   26   59 1
    54   27   28 ar
    55   27   60 1
    56   28   29 ar
    57   28   61 1
    58   29   30 1
    59   30   31 1
    60   30   32 am
    61   32   33 2
    62   34   39 ar
    63   34   35 ar
    64   35   36 ar
    65   35   62 1
    66   36   37 ar
    67   36   63 1
    68   37   38 ar
    69   37   64 1
    70   38   39 ar
    71   38   65 1
    72   39   66 1
@<TRIPOS>MOLECULE
CHEMBL578418
   64    69     0     0     0
SMALL
USER_CHARGES

@<TRIPOS>ATOM
      1 C1          2.5600   -0.1504    0.1842 C.ar      1 <0>        -0.1191
      2 C2          3.8147    0.4302    0.0567 C.ar      1 <0>        -0.0932
      3 C3          4.9243   -0.3443   -0.2009 C.ar      1 <0>        -0.1110
      4 C4          4.7890   -1.7225   -0.3347 C.ar      1 <0>         0.0986
      5 C5          3.5157   -2.3059   -0.2042 C.ar      1 <0>        -0.1171
      6 C6          2.4044   -1.5017    0.0566 C.ar      1 <0>        -0.1140
      7 C7          3.7084   -3.7454   -0.3953 C.2       1 <0>        -0.2376
      8 C8          5.0177   -3.9398   -0.6187 C.2       1 <0>         0.1039
      9 N1          5.6792   -2.7424   -0.5862 N.pl3     1 <0>        -0.5845
     10 H1          6.6332   -2.6290   -0.7200 H         1 <0>         0.4265
     11 C9          2.6396   -4.8068   -0.3495 C.3       1 <0>        -0.0555
     12 C10         1.9735   -4.9195   -1.7223 C.3       1 <0>         0.0434
     13 H2          2.7343   -5.1014   -2.4814 H         1 <0>         0.1528
     14 C11         0.9762   -6.0798   -1.7115 C.3       1 <0>         0.0265
     15 O1          0.4402   -6.2593   -3.0239 O.3       1 <0>        -0.3229
     16 C12        -0.4680   -7.2571   -3.1884 C.ar      1 <0>         0.0723
     17 C13        -1.0301   -7.4979   -4.4358 C.ar      1 <0>        -0.1028
     18 C14        -1.9580   -8.5347   -4.5540 C.ar      1 <0>        -0.0249
     19 C15        -2.2823   -9.2828   -3.4238 C.ar      1 <0>         0.0778
     20 N2         -1.7246   -9.0197   -2.2600 N.ar      1 <0>        -0.4356
     21 C16        -0.8409   -8.0519   -2.1135 C.ar      1 <0>         0.0143
     22 C17        -2.5896   -8.8348   -5.8629 C.ar      1 <0>        -0.1133
     23 C18        -2.2504   -8.0784   -6.9914 C.ar      1 <0>        -0.0466
     24 C19        -2.8204   -8.3406   -8.2017 C.ar      1 <0>        -0.1436
     25 C20        -3.7519   -9.3702   -8.3288 C.ar      1 <0>         0.1666
     26 C21        -4.1012  -10.1381   -7.2011 C.ar      1 <0>        -0.1921
     27 C22        -3.5092   -9.8670   -5.9659 C.ar      1 <0>        -0.0138
     28 C23        -5.0853  -11.1201   -7.6613 C.2       1 <0>         0.3719
     29 N3         -5.2740  -10.9221   -8.9388 N.2       1 <0>        -0.3132
     30 N4         -4.4773   -9.8620   -9.3826 N.pl3     1 <0>        -0.4978
     31 H3         -4.4437   -9.5274  -10.2924 H         1 <0>         0.4449
     32 N5         -5.7095  -12.0928   -6.8761 N.pl3     1 <0>        -0.5953
     33 C24        -5.5376  -12.1117   -5.4148 C.3       1 <0>         0.0859
     34 C25        -6.9240  -12.1938   -4.7659 C.3       1 <0>         0.0450
     35 O2         -7.6457  -13.2892   -5.3345 O.3       1 <0>        -0.3755
     36 C26        -7.8953  -13.1609   -6.7363 C.3       1 <0>         0.0454
     37 C27        -6.5632  -13.1249   -7.4855 C.3       1 <0>         0.0930
     38 N6          1.2662   -3.6687   -2.0276 N.4       1 <0>        -0.6362
     39 H4          1.7009    0.4707    0.3904 H         1 <0>         0.1312
     40 H5          3.9218    1.4998    0.1602 H         1 <0>         0.1352
     41 H6          5.8959    0.1168   -0.2991 H         1 <0>         0.1294
     42 H7          1.4253   -1.9464    0.1573 H         1 <0>         0.1149
     43 H8          5.4804   -4.8990   -0.7978 H         1 <0>         0.1791
     44 H9          3.0889   -5.7637   -0.0840 H         1 <0>         0.1217
     45 H10         1.8916   -4.5373    0.3962 H         1 <0>         0.0998
     46 H11         1.4837   -6.9922   -1.3984 H         1 <0>         0.1138
     47 H12         0.1672   -5.8571   -1.0159 H         1 <0>         0.0919
     48 H13        -0.7568   -6.8986   -5.2917 H         1 <0>         0.1476
     49 H14        -2.9989  -10.0869   -3.5031 H         1 <0>         0.1628
     50 H15        -0.4041   -7.8726   -1.1422 H         1 <0>         0.1570
     51 H16        -1.5301   -7.2787   -6.9019 H         1 <0>         0.1317
     52 H17        -2.5501   -7.7492   -9.0640 H         1 <0>         0.1344
     53 H18        -3.7683  -10.4541   -5.0972 H         1 <0>         0.1361
     54 H19        -4.9451  -12.9798   -5.1261 H         1 <0>         0.0801
     55 H20        -5.0349  -11.1998   -5.0925 H         1 <0>         0.0935
     56 H21        -6.8150  -12.3477   -3.6924 H         1 <0>         0.1098
     57 H22        -7.4669  -11.2664   -4.9482 H         1 <0>         0.0572
     58 H23        -8.4851  -14.0106   -7.0803 H         1 <0>         0.1104
     59 H24        -8.4417  -12.2370   -6.9258 H         1 <0>         0.0570
     60 H25        -6.7393  -12.8838   -8.5338 H         1 <0>         0.0987
     61 H26        -6.0757  -14.0968   -7.4088 H         1 <0>         0.0761
     62 H27         0.8270   -3.7431   -2.9329 H         1 <0>         0.4392
     63 H28         0.5620   -3.5004   -1.3249 H         1 <0>         0.4299
     64 H29         1.9239   -2.9036   -2.0346 H         1 <0>         0.4380
@<TRIPOS>BOND
     1    1    6 ar
     2    1    2 ar
     3    1   39 1
     4    2    3 ar
     5    2   40 1
     6    3    4 ar
     7    3   41 1
     8    4    9 1
     9    4    5 ar
    10    5    6 ar
    11    5    7 1
    12    6   42 1
    13    7    8 2
    14    7   11 1
    15    8    9 1
    16    8   43 1
    17    9   10 1
    18   11   12 1
    19   11   44 1
    20   11   45 1
    21   12   13 1
    22   12   14 1
    23   12   38 1
    24   14   15 1
    25   14   46 1
    26   14   47 1
    27   15   16 1
    28   16   21 ar
    29   16   17 ar
    30   17   18 ar
    31   17   48 1
    32   18   19 ar
    33   18   22 1
    34   19   20 ar
    35   19   49 1
    36   20   21 ar
    37   21   50 1
    38   22   27 ar
    39   22   23 ar
    40   23   24 ar
    41   23   51 1
    42   24   25 ar
    43   24   52 1
    44   25   30 1
    45   25   26 ar
    46   26   27 ar
    47   26   28 1
    48   27   53 1
    49   28   29 2
    50   28   32 1
    51   29   30 1
    52   30   31 1
    53   32   37 1
    54   32   33 1
    55   33   34 1
    56   33   54 1
    57   33   55 1
    58   34   35 1
    59   34   56 1
    60   34   57 1
    61   35   36 1
    62   36   37 1
    63   36   58 1
    64   36   59 1
    65   37   60 1
    66   37   61 1
    67   38   62 1
    68   38   63 1
    69   38   64 1
@<TRIPOS>MOLECULE
CHEMBL1173349
   32    34     0     0     0
SMALL
USER_CHARGES

@<TRIPOS>ATOM
      1 C1          2.3839   -0.5379    3.2776 C.2       1 <0>         0.0936
      2 C2          3.1425    0.3305    2.5879 C.2       1 <0>        -0.1020
      3 C3          3.0014   -0.0151    1.1742 C.ar      1 <0>        -0.1970
      4 C4          2.1271   -1.1167    1.1240 C.ar      1 <0>         0.3364
      5 N1          1.7712   -1.4090    2.4117 N.pl3     1 <0>        -0.5605
      6 H1          1.1734   -2.1262    2.6745 H         1 <0>         0.4360
      7 N2          1.8259   -1.6367   -0.0649 N.ar      1 <0>        -0.5194
      8 C5          2.3347   -1.1312   -1.1677 C.ar      1 <0>         0.3368
      9 N3          3.1585   -0.0987   -1.1659 N.ar      1 <0>        -0.5440
     10 C6          3.5187    0.4890   -0.0285 C.ar      1 <0>         0.4696
     11 N4          4.3813    1.5703   -0.0314 N.pl3     1 <0>        -0.6429
     12 C7          3.8622    2.9417   -0.1240 C.3       1 <0>         0.1395
     13 C8          4.5564    3.6539   -1.2892 C.3       1 <0>        -0.1334
     14 C9          6.0731    3.5671   -1.1042 C.3       1 <0>        -0.1371
     15 C10         6.5060    2.0992   -1.1086 C.3       1 <0>         0.0029
     16 C11         5.8336    1.3696    0.0643 C.3       1 <0>         0.1343
     17 N5          7.9654    2.0180   -0.9626 N.4       1 <0>        -0.6339
     18 Cl1         4.1047    1.6158    3.2481 Cl        1 <0>        -0.0260
     19 H2          2.2761   -0.5513    4.3521 H         1 <0>         0.1974
     20 H3          2.0682   -1.5792   -2.1135 H         1 <0>         0.2087
     21 H4          2.7870    2.9143   -0.3009 H         1 <0>         0.0843
     22 H5          4.0685    3.4739    0.8046 H         1 <0>         0.0716
     23 H6          4.2762    3.1748   -2.2273 H         1 <0>         0.0822
     24 H7          4.2517    4.7003   -1.3094 H         1 <0>         0.0954
     25 H8          6.5691    4.0944   -1.9191 H         1 <0>         0.0896
     26 H9          6.3498    4.0245   -0.1543 H         1 <0>         0.0886
     27 H10         6.2075    1.6346   -2.0484 H         1 <0>         0.1479
     28 H11         6.1973    1.7762    1.0079 H         1 <0>         0.0816
     29 H12         6.0596    0.3045    0.0117 H         1 <0>         0.0919
     30 H13         8.2407    2.4470   -0.0918 H         1 <0>         0.4331
     31 H14         8.2504    1.0501   -0.9655 H         1 <0>         0.4366
     32 H15         8.4076    2.5011   -1.7302 H         1 <0>         0.4382
@<TRIPOS>BOND
     1    1    5 1
     2    1    2 2
     3    1   19 1
     4    2    3 1
     5    2   18 1
     6    3   10 ar
     7    3    4 ar
     8    4    5 1
     9    4    7 ar
    10    5    6 1
    11    7    8 ar
    12    8    9 ar
    13    8   20 1
    14    9   10 ar
    15   10   11 1
    16   11   16 1
    17   11   12 1
    18   12   13 1
    19   12   21 1
    20   12   22 1
    21   13   14 1
    22   13   23 1
    23   13   24 1
    24   14   15 1
    25   14   25 1
    26   14   26 1
    27   15   16 1
    28   15   17 1
    29   15   27 1
    30   16   28 1
    31   16   29 1
    32   17   30 1
    33   17   31 1
    34   17   32 1
@<TRIPOS>MOLECULE
CHEMBL1173349
   32    34     0     0     0
SMALL
USER_CHARGES

@<TRIPOS>ATOM
      1 C1          2.7613   -0.8565   -3.3283 C.2       1 <0>         0.0934
      2 C2          3.4411    0.0784   -2.6434 C.2       1 <0>        -0.1017
      3 C3          3.1392   -0.1313   -1.2283 C.ar      1 <0>        -0.1965
      4 C4          2.2595   -1.2285   -1.1722 C.ar      1 <0>         0.3363
      5 N1          2.0503   -1.6446   -2.4580 N.pl3     1 <0>        -0.5604
      6 H1          1.4832   -2.3877   -2.7170 H         1 <0>         0.4360
      7 N2          1.8225   -1.6337    0.0192 N.ar      1 <0>        -0.5193
      8 C5          2.2050   -1.0216    1.1189 C.ar      1 <0>         0.3368
      9 N3          3.0286    0.0109    1.1117 N.ar      1 <0>        -0.5444
     10 C6          3.5187    0.4890   -0.0285 C.ar      1 <0>         0.4696
     11 N4          4.3813    1.5703   -0.0314 N.pl3     1 <0>        -0.6421
     12 C7          3.8622    2.9417   -0.1241 C.3       1 <0>         0.1394
     13 C8          4.4275    3.7625    1.0394 C.3       1 <0>        -0.1336
     14 C9          5.9548    3.6666    1.0314 C.3       1 <0>        -0.1370
     15 C10         6.3771    2.2077    1.2195 C.3       1 <0>         0.0031
     16 C11         5.8336    1.3696    0.0643 C.3       1 <0>         0.1335
     17 N5          7.8433    2.1208    1.2433 N.4       1 <0>        -0.6335
     18 Cl1         4.4788    1.2999   -3.3103 Cl        1 <0>        -0.0259
     19 H2          2.7694   -0.9682   -4.4025 H         1 <0>         0.1974
     20 H3          1.8299   -1.3779    2.0670 H         1 <0>         0.2087
     21 H4          4.1722    3.3865   -1.0697 H         1 <0>         0.0718
     22 H5          2.7740    2.9253   -0.0649 H         1 <0>         0.0843
     23 H6          4.1278    4.8046    0.9288 H         1 <0>         0.0955
     24 H7          4.0433    3.3709    1.9813 H         1 <0>         0.0822
     25 H8          6.3369    4.0354    0.0795 H         1 <0>         0.0887
     26 H9          6.3608    4.2698    1.8435 H         1 <0>         0.0897
     27 H10         5.9745    1.8308    2.1598 H         1 <0>         0.1476
     28 H11         6.0456    0.3162    0.2477 H         1 <0>         0.0916
     29 H12         6.3079    1.6834   -0.8656 H         1 <0>         0.0806
     30 H13         8.2008    2.6753    2.0068 H         1 <0>         0.4385
     31 H14         8.1213    1.1588    1.3674 H         1 <0>         0.4367
     32 H15         8.2150    2.4686    0.3722 H         1 <0>         0.4332
@<TRIPOS>BOND
     1    1    5 1
     2    1    2 2
     3    1   19 1
     4    2    3 1
     5    2   18 1
     6    3   10 ar
     7    3    4 ar
     8    4    5 1
     9    4    7 ar
    10    5    6 1
    11    7    8 ar
    12    8    9 ar
    13    8   20 1
    14    9   10 ar
    15   10   11 1
    16   11   16 1
    17   11   12 1
    18   12   13 1
    19   12   21 1
    20   12   22 1
    21   13   14 1
    22   13   23 1
    23   13   24 1
    24   14   15 1
    25   14   25 1
    26   14   26 1
    27   15   16 1
    28   15   17 1
    29   15   27 1
    30   16   28 1
    31   16   29 1
    32   17   30 1
    33   17   31 1
    34   17   32 1
@<TRIPOS>MOLECULE
CHEMBL1173350
   39    42     0     0     0
SMALL
USER_CHARGES

@<TRIPOS>ATOM
      1 C1          2.4721   -0.6082    3.2841 C.2       1 <0>         0.0874
      2 C2          3.2124    0.2748    2.5930 C.2       1 <0>        -0.0958
      3 C3          3.0335   -0.0407    1.1766 C.ar      1 <0>        -0.2001
      4 C4          2.1577   -1.1412    1.1263 C.ar      1 <0>         0.3351
      5 N1          1.8362   -1.4608    2.4165 N.pl3     1 <0>        -0.5617
      6 H1          1.2454   -2.1836    2.6799 H         1 <0>         0.4344
      7 N2          1.8247   -1.6358   -0.0650 N.ar      1 <0>        -0.5249
      8 C5          2.3042   -1.1068   -1.1699 C.ar      1 <0>         0.3381
      9 N3          3.1281   -0.0745   -1.1681 N.ar      1 <0>        -0.5455
     10 C6          3.5187    0.4890   -0.0285 C.ar      1 <0>         0.4988
     11 N4          4.3813    1.5703   -0.0314 N.pl3     1 <0>        -0.6643
     12 C7          3.9832    2.9877   -0.1189 C.3       1 <0>         0.1382
     13 C8          5.1577    3.7721    0.5203 C.3       1 <0>        -0.1293
     14 C9          6.3736    2.9414    0.0540 C.3       1 <0>        -0.0824
     15 C10         5.8487    1.4978    0.0588 C.3       1 <0>         0.1524
     16 C11         7.5265    3.0957    1.0375 C.3       1 <0>        -0.1326
     17 C12         8.0501    4.5341    0.9838 C.3       1 <0>        -0.0065
     18 N5          8.4915    4.8449   -0.3813 N.4       1 <0>        -0.5048
     19 C13         7.3490    4.7914   -1.3016 C.3       1 <0>        -0.0088
     20 C14         6.7951    3.3641   -1.3474 C.3       1 <0>        -0.1329
     21 Cl1         4.1922    1.5459    3.2545 Cl        1 <0>        -0.0321
     22 H2          2.3930   -0.6446    4.3606 H         1 <0>         0.1953
     23 H3          2.0124   -1.5346   -2.1176 H         1 <0>         0.2076
     24 H4          3.8536    3.2814   -1.1606 H         1 <0>         0.0584
     25 H5          3.0638    3.1585    0.4412 H         1 <0>         0.0691
     26 H6          5.2064    4.7890    0.1309 H         1 <0>         0.0818
     27 H7          5.0800    3.7749    1.6075 H         1 <0>         0.0873
     28 H8          6.1396    0.9979    0.9827 H         1 <0>         0.0644
     29 H9          6.2471    0.9575   -0.7999 H         1 <0>         0.0607
     30 H10         7.1767    2.8734    2.0456 H         1 <0>         0.1145
     31 H11         8.3276    2.4068    0.7698 H         1 <0>         0.0937
     32 H12         7.2550    5.2211    1.2736 H         1 <0>         0.1309
     33 H13         8.8900    4.6407    1.6702 H         1 <0>         0.1354
     34 H14         8.8943    5.7698   -0.4008 H         1 <0>         0.4320
     35 H15         6.5712    5.4718   -0.9549 H         1 <0>         0.1315
     36 H16         7.6722    5.0877   -2.2995 H         1 <0>         0.1358
     37 H17         7.5657    2.6866   -1.7153 H         1 <0>         0.0934
     38 H18         5.9323    3.3299   -2.0126 H         1 <0>         0.1175
     39 H19         9.1860    4.1724   -0.6701 H         1 <0>         0.4281
@<TRIPOS>BOND
     1    1    5 1
     2    1    2 2
     3    1   22 1
     4    2    3 1
     5    2   21 1
     6    3   10 ar
     7    3    4 ar
     8    4    5 1
     9    4    7 ar
    10    5    6 1
    11    7    8 ar
    12    8    9 ar
    13    8   23 1
    14    9   10 ar
    15   10   11 1
    16   11   15 1
    17   11   12 1
    18   12   13 1
    19   12   24 1
    20   12   25 1
    21   13   14 1
    22   13   26 1
    23   13   27 1
    24   14   20 1
    25   14   15 1
    26   14   16 1
    27   15   28 1
    28   15   29 1
    29   16   17 1
    30   16   30 1
    31   16   31 1
    32   17   18 1
    33   17   32 1
    34   17   33 1
    35   18   19 1
    36   18   34 1
    37   18   39 1
    38   19   20 1
    39   19   35 1
    40   19   36 1
    41   20   37 1
    42   20   38 1
@<TRIPOS>MOLECULE
CHEMBL575428
   69    73     0     0     0
SMALL
USER_CHARGES

@<TRIPOS>ATOM
      1 C1         -0.0988    0.2506    0.7910 C.3       1 <0>        -0.0830
      2 C2         -0.0297   -1.2484    0.6521 C.2       1 <0>         0.1048
      3 C3         -0.0164   -1.9634   -0.5663 C.ar      1 <0>        -0.1396
      4 C4         -0.0571   -1.6036   -1.9194 C.ar      1 <0>        -0.0581
      5 C5         -0.0252   -2.6071   -2.8741 C.ar      1 <0>         0.0930
      6 N1          0.0422   -3.8896   -2.5219 N.ar      1 <0>        -0.4342
      7 C6          0.0823   -4.2732   -1.2656 C.ar      1 <0>         0.1198
      8 C7          0.0553   -3.3344   -0.2386 C.ar      1 <0>         0.0812
      9 N2          0.0824   -3.4057    1.1293 N.pl3     1 <0>        -0.4845
     10 H1          0.1312   -4.2188    1.6560 H         1 <0>         0.4499
     11 N3          0.0332   -2.1005    1.6351 N.2       1 <0>        -0.2289
     12 C8         -0.0674   -2.2470   -4.3128 C.ar      1 <0>        -0.0329
     13 C9         -0.1473   -3.2414   -5.2908 C.ar      1 <0>        -0.0694
     14 C10        -0.1846   -2.8518   -6.6233 C.ar      1 <0>         0.0625
     15 C11        -0.1415   -1.4995   -6.9345 C.ar      1 <0>         0.0255
     16 N4         -0.0657   -0.5874   -5.9854 N.ar      1 <0>        -0.4395
     17 C12        -0.0338   -0.9116   -4.7090 C.ar      1 <0>         0.0903
     18 O1         -0.2618   -3.7828   -7.6105 O.3       1 <0>        -0.3212
     19 C13        -0.2958   -3.3011   -8.9554 C.3       1 <0>         0.0269
     20 C14        -0.3824   -4.4859   -9.9195 C.3       1 <0>         0.0439
     21 H2          0.4405   -5.1737   -9.7249 H         1 <0>         0.1565
     22 C15        -0.2933   -3.9787  -11.3603 C.3       1 <0>        -0.0970
     23 C16        -0.2550   -5.1525  -12.3046 C.ar      1 <0>        -0.0873
     24 C17         0.9582   -5.7102  -12.6647 C.ar      1 <0>        -0.1451
     25 C18         0.9967   -6.7870  -13.5308 C.ar      1 <0>        -0.0623
     26 C19        -0.1774   -7.3085  -14.0392 C.ar      1 <0>        -0.1980
     27 C20        -1.3956   -6.7509  -13.6795 C.ar      1 <0>         0.1490
     28 C21        -1.4319   -5.6740  -12.8053 C.ar      1 <0>        -0.1781
     29 O2         -2.5518   -7.2621  -14.1782 O.3       1 <0>        -0.2949
     30 C22        -2.4388   -8.3745  -15.0680 C.3       1 <0>         0.0646
     31 C23        -3.8340   -8.8083  -15.5219 C.3       1 <0>         0.0519
     32 N5         -4.4453   -7.7360  -16.3184 N.3       1 <0>        -0.5323
     33 C24        -5.9053   -7.8954  -16.3842 C.3       1 <0>         0.0177
     34 C25        -6.5058   -6.7272  -17.1708 C.3       1 <0>         0.0630
     35 O3         -5.9077   -6.6756  -18.4689 O.3       1 <0>        -0.3819
     36 C26        -4.4863   -6.5202  -18.4420 C.3       1 <0>         0.0638
     37 C27        -3.8653   -7.6862  -17.6683 C.3       1 <0>         0.0125
     38 N6         -1.6603   -5.1837   -9.7243 N.4       1 <0>        -0.6371
     39 H3          0.9108    0.6613    0.8021 H         1 <0>         0.0892
     40 H4         -0.6518    0.6684   -0.0502 H         1 <0>         0.0850
     41 H5         -0.6052    0.5063    1.7217 H         1 <0>         0.0859
     42 H6         -0.1125   -0.5655   -2.2123 H         1 <0>         0.1474
     43 H7          0.1367   -5.3254   -1.0282 H         1 <0>         0.1692
     44 H8         -0.1789   -4.2858   -5.0177 H         1 <0>         0.1563
     45 H9         -0.1701   -1.1901   -7.9688 H         1 <0>         0.1585
     46 H10         0.0238   -0.1341   -3.9617 H         1 <0>         0.1677
     47 H11        -1.1665   -2.6591   -9.0895 H         1 <0>         0.0929
     48 H12         0.6106   -2.7314   -9.1604 H         1 <0>         0.1146
     49 H13        -1.1639   -3.3617  -11.5828 H         1 <0>         0.1058
     50 H14         0.6130   -3.3854  -11.4812 H         1 <0>         0.1282
     51 H15         1.8771   -5.3035  -12.2689 H         1 <0>         0.1319
     52 H16         1.9454   -7.2207  -13.8105 H         1 <0>         0.1347
     53 H17        -0.1468   -8.1493  -14.7163 H         1 <0>         0.1345
     54 H18        -2.3793   -5.2412  -12.5200 H         1 <0>         0.1305
     55 H19        -1.8473   -8.0861  -15.9369 H         1 <0>         0.0680
     56 H20        -1.9500   -9.2025  -14.5544 H         1 <0>         0.0716
     57 H21        -3.7546   -9.7109  -16.1280 H         1 <0>         0.0667
     58 H22        -4.4538   -9.0106  -14.6484 H         1 <0>         0.0889
     59 H23        -6.1468   -8.8333  -16.8843 H         1 <0>         0.0469
     60 H24        -6.3164   -7.9040  -15.3747 H         1 <0>         0.0879
     61 H25        -7.5816   -6.8709  -17.2712 H         1 <0>         0.1015
     62 H26        -6.3103   -5.7940  -16.6426 H         1 <0>         0.0598
     63 H27        -4.1015   -6.5141  -19.4619 H         1 <0>         0.1011
     64 H28        -4.2320   -5.5809  -17.9508 H         1 <0>         0.0595
     65 H29        -2.7872   -7.5421  -17.5962 H         1 <0>         0.0838
     66 H30        -4.0742   -8.6208  -18.1889 H         1 <0>         0.0481
     67 H31        -1.7174   -5.9651  -10.3601 H         1 <0>         0.4371
     68 H32        -1.7191   -5.5182   -8.7741 H         1 <0>         0.4424
     69 H33        -2.4221   -4.5471   -9.9044 H         1 <0>         0.4325
@<TRIPOS>BOND
     1    1    2 1
     2    1   39 1
     3    1   40 1
     4    1   41 1
     5    2   11 2
     6    2    3 1
     7    3    8 ar
     8    3    4 ar
     9    4    5 ar
    10    4   42 1
    11    5    6 ar
    12    5   12 1
    13    6    7 ar
    14    7    8 ar
    15    7   43 1
    16    8    9 1
    17    9   10 1
    18    9   11 1
    19   12   17 ar
    20   12   13 ar
    21   13   14 ar
    22   13   44 1
    23   14   15 ar
    24   14   18 1
    25   15   16 ar
    26   15   45 1
    27   16   17 ar
    28   17   46 1
    29   18   19 1
    30   19   20 1
    31   19   47 1
    32   19   48 1
    33   20   21 1
    34   20   22 1
    35   20   38 1
    36   22   23 1
    37   22   49 1
    38   22   50 1
    39   23   28 ar
    40   23   24 ar
    41   24   25 ar
    42   24   51 1
    43   25   26 ar
    44   25   52 1
    45   26   27 ar
    46   26   53 1
    47   27   28 ar
    48   27   29 1
    49   28   54 1
    50   29   30 1
    51   30   31 1
    52   30   55 1
    53   30   56 1
    54   31   32 1
    55   31   57 1
    56   31   58 1
    57   32   37 1
    58   32   33 1
    59   33   34 1
    60   33   59 1
    61   33   60 1
    62   34   35 1
    63   34   61 1
    64   34   62 1
    65   35   36 1
    66   36   37 1
    67   36   63 1
    68   36   64 1
    69   37   65 1
    70   37   66 1
    71   38   67 1
    72   38   68 1
    73   38   69 1
@<TRIPOS>MOLECULE
CHEMBL575428
   70    74     0     0     0
SMALL
USER_CHARGES

@<TRIPOS>ATOM
      1 C1          1.2394    0.8917    0.0440 C.3       1 <0>        -0.0838
      2 C2          1.2274   -0.6141   -0.0152 C.2       1 <0>         0.1055
      3 C3          1.1382   -1.3920   -1.1911 C.ar      1 <0>        -0.1399
      4 C4          1.0399   -1.1022   -2.5580 C.ar      1 <0>        -0.0555
      5 C5          0.9697   -2.1550   -3.4560 C.ar      1 <0>         0.0880
      6 N1          0.9940   -3.4188   -3.0374 N.ar      1 <0>        -0.4354
      7 C6          1.0852   -3.7374   -1.7656 C.ar      1 <0>         0.1199
      8 C7          1.1611   -2.7457   -0.7922 C.ar      1 <0>         0.0828
      9 N2          1.2607   -2.7462    0.5741 N.pl3     1 <0>        -0.4832
     10 H1          1.2990   -3.5319    1.1417 H         1 <0>         0.4506
     11 N3          1.3033   -1.4153    1.0088 N.2       1 <0>        -0.2266
     12 C8          0.8652   -1.8694   -4.9082 C.ar      1 <0>        -0.0286
     13 C9          0.6827   -2.9084   -5.8240 C.ar      1 <0>        -0.0689
     14 C10         0.5904   -2.5881   -7.1723 C.ar      1 <0>         0.0583
     15 C11         0.6820   -1.2581   -7.5597 C.ar      1 <0>         0.0247
     16 N4          0.8548   -0.3024   -6.6679 N.ar      1 <0>        -0.4386
     17 C12         0.9417   -0.5602   -5.3790 C.ar      1 <0>         0.0928
     18 O1          0.4131   -3.5646   -8.1009 O.3       1 <0>        -0.3220
     19 C13         0.3279   -3.1532   -9.4668 C.3       1 <0>         0.0264
     20 C14         0.1302   -4.3811  -10.3579 C.3       1 <0>         0.0430
     21 H2          0.9282   -5.0992  -10.1692 H         1 <0>         0.1581
     22 C15         0.1637   -3.9557  -11.8271 C.3       1 <0>        -0.1009
     23 C16         0.0922   -5.1780  -12.7057 C.ar      1 <0>        -0.0816
     24 C17         1.2549   -5.8158  -13.0981 C.ar      1 <0>        -0.1249
     25 C18         1.1927   -6.9372  -13.9040 C.ar      1 <0>        -0.0592
     26 C19        -0.0319   -7.4234  -14.3199 C.ar      1 <0>        -0.1894
     27 C20        -1.1996   -6.7855  -13.9278 C.ar      1 <0>         0.1286
     28 C21        -1.1347   -5.6637  -13.1139 C.ar      1 <0>        -0.1679
     29 O2         -2.4053   -7.2618  -14.3356 O.3       1 <0>        -0.3286
     30 C22        -2.3962   -8.4239  -15.1671 C.3       1 <0>         0.0246
     31 C23        -3.8340   -8.8083  -15.5219 C.3       1 <0>        -0.0009
     32 N5         -4.4453   -7.7360  -16.3184 N.4       1 <0>        -0.3867
     33 C24        -5.8667   -8.0375  -16.5372 C.3       1 <0>        -0.0445
     34 C25        -6.5013   -6.9186  -17.3669 C.3       1 <0>         0.0355
     35 O3         -5.7950   -6.7903  -18.6040 O.3       1 <0>        -0.3524
     36 C26        -4.3998   -6.5198  -18.4429 C.3       1 <0>         0.0373
     37 C27        -3.7612   -7.6379  -17.6151 C.3       1 <0>        -0.0508
     38 N6         -1.1673   -5.0007  -10.0569 N.4       1 <0>        -0.6373
     39 H3          2.2668    1.2498   -0.0211 H         1 <0>         0.0900
     40 H4          0.6614    1.2927   -0.7887 H         1 <0>         0.0849
     41 H5          0.7985    1.2219    0.9846 H         1 <0>         0.0870
     42 H6          1.0190   -0.0796   -2.9046 H         1 <0>         0.1475
     43 H7          1.1014   -4.7770   -1.4736 H         1 <0>         0.1696
     44 H8          0.6154   -3.9340   -5.4923 H         1 <0>         0.1563
     45 H9          0.6110   -1.0026   -8.6066 H         1 <0>         0.1567
     46 H10         1.0786    0.2516   -4.6799 H         1 <0>         0.1694
     47 H11        -0.5165   -2.4751   -9.5900 H         1 <0>         0.0930
     48 H12         1.2482   -2.6427   -9.7506 H         1 <0>         0.1159
     49 H13        -0.6868   -3.3071  -12.0371 H         1 <0>         0.1081
     50 H14         1.0898   -3.4172  -12.0285 H         1 <0>         0.1332
     51 H15         2.2131   -5.4368  -12.7746 H         1 <0>         0.1408
     52 H16         2.1021   -7.4335  -14.2091 H         1 <0>         0.1430
     53 H17        -0.0800   -8.2992  -14.9501 H         1 <0>         0.1369
     54 H18        -2.0426   -5.1680  -12.8033 H         1 <0>         0.1335
     55 H19        -1.8406   -8.2126  -16.0808 H         1 <0>         0.0915
     56 H20        -1.9206   -9.2478  -14.6350 H         1 <0>         0.1151
     57 H21        -3.8310   -9.7330  -16.0991 H         1 <0>         0.1552
     58 H22        -4.4078   -8.9533  -14.6066 H         1 <0>         0.1453
     59 H23        -5.9598   -8.9834  -17.0707 H         1 <0>         0.1429
     60 H24        -6.3751   -8.1103  -15.5758 H         1 <0>         0.1444
     61 H25        -7.5450   -7.1611  -17.5671 H         1 <0>         0.1458
     62 H26        -6.4442   -5.9798  -16.8161 H         1 <0>         0.0810
     63 H27        -3.9225   -6.4735  -19.4217 H         1 <0>         0.1445
     64 H28        -4.2707   -5.5672  -17.9289 H         1 <0>         0.0804
     65 H29        -2.7067   -7.4141  -17.4539 H         1 <0>         0.1381
     66 H30        -3.8551   -8.5840  -18.1482 H         1 <0>         0.1441
     67 H31        -1.2977   -5.8104  -10.6446 H         1 <0>         0.4325
     68 H32        -1.1894   -5.2812   -9.0880 H         1 <0>         0.4461
     69 H33        -1.9060   -4.3359  -10.2316 H         1 <0>         0.4322
     70 H34        -4.3591   -6.8598  -15.8254 H         1 <0>         0.4267
@<TRIPOS>BOND
     1    1    2 1
     2    1   39 1
     3    1   40 1
     4    1   41 1
     5    2   11 2
     6    2    3 1
     7    3    8 ar
     8    3    4 ar
     9    4    5 ar
    10    4   42 1
    11    5    6 ar
    12    5   12 1
    13    6    7 ar
    14    7    8 ar
    15    7   43 1
    16    8    9 1
    17    9   10 1
    18    9   11 1
    19   12   17 ar
    20   12   13 ar
    21   13   14 ar
    22   13   44 1
    23   14   15 ar
    24   14   18 1
    25   15   16 ar
    26   15   45 1
    27   16   17 ar
    28   17   46 1
    29   18   19 1
    30   19   20 1
    31   19   47 1
    32   19   48 1
    33   20   21 1
    34   20   22 1
    35   20   38 1
    36   22   23 1
    37   22   49 1
    38   22   50 1
    39   23   28 ar
    40   23   24 ar
    41   24   25 ar
    42   24   51 1
    43   25   26 ar
    44   25   52 1
    45   26   27 ar
    46   26   53 1
    47   27   28 ar
    48   27   29 1
    49   28   54 1
    50   29   30 1
    51   30   31 1
    52   30   55 1
    53   30   56 1
    54   31   32 1
    55   31   57 1
    56   31   58 1
    57   32   37 1
    58   32   33 1
    59   32   70 1
    60   33   34 1
    61   33   59 1
    62   33   60 1
    63   34   35 1
    64   34   61 1
    65   34   62 1
    66   35   36 1
    67   36   37 1
    68   36   63 1
    69   36   64 1
    70   37   65 1
    71   37   66 1
    72   38   67 1
    73   38   68 1
    74   38   69 1
@<TRIPOS>MOLECULE
CHEMBL211827
   52    56     0     0     0
SMALL
USER_CHARGES

@<TRIPOS>ATOM
      1 C1         -0.0164    1.3604    0.0095 C.ar      1 <0>        -0.1318
      2 C2          1.1696    2.0846    0.0021 C.ar      1 <0>        -0.0610
      3 C3          2.3780    1.4481   -0.0128 C.ar      1 <0>        -0.1254
      4 C4          2.4284    0.0562   -0.0207 C.ar      1 <0>         0.1348
      5 C5          1.2277   -0.6795   -0.0132 C.ar      1 <0>        -0.1935
      6 C6          0.0021   -0.0041    0.0020 C.ar      1 <0>        -0.0780
      7 C7          1.6095   -2.0878   -0.0252 C.2       1 <0>         0.0438
      8 N1          2.9105   -2.1472   -0.0383 N.2       1 <0>        -0.2075
      9 N2          3.4503   -0.8568   -0.0361 N.pl3     1 <0>        -0.4894
     10 H1          4.3963   -0.6425   -0.0441 H         1 <0>         0.4511
     11 C8          0.6669   -3.2636   -0.0228 C.3       1 <0>        -0.0557
     12 C9          0.3337   -3.6531   -1.4644 C.3       1 <0>         0.0452
     13 H2          1.2570   -3.8374   -2.0136 H         1 <0>         0.1587
     14 C10        -0.5220   -4.9215   -1.4652 C.3       1 <0>         0.0280
     15 O1         -0.7358   -5.3510   -2.8112 O.3       1 <0>        -0.3213
     16 C11        -1.4824   -6.4726   -2.9898 C.ar      1 <0>         0.0679
     17 C12        -1.7297   -6.9566   -4.2683 C.ar      1 <0>        -0.0907
     18 C13        -2.5021   -8.1128   -4.3999 C.ar      1 <0>        -0.0479
     19 C14        -2.9917   -8.7322   -3.2512 C.ar      1 <0>         0.0906
     20 N3         -2.7328   -8.2380   -2.0581 N.ar      1 <0>        -0.4382
     21 C15        -2.0025   -7.1518   -1.8969 C.ar      1 <0>         0.0252
     22 C16        -2.7973   -8.6727   -5.7416 C.ar      1 <0>        -0.0368
     23 C17        -2.2910   -8.0379   -6.8873 C.ar      1 <0>        -0.1139
     24 C18        -2.5455   -8.5286   -8.1286 C.ar      1 <0>        -0.0742
     25 C19        -3.3254   -9.6878   -8.2756 C.ar      1 <0>        -0.1089
     26 C20        -3.6142  -10.2318   -9.5374 C.ar      1 <0>         0.1483
     27 N4         -4.3466  -11.3170   -9.6308 N.ar      1 <0>        -0.4813
     28 C21        -4.8410  -11.9432   -8.5716 C.ar      1 <0>         0.0852
     29 C22        -4.6193  -11.4966   -7.3046 C.ar      1 <0>        -0.1541
     30 C23        -3.8415  -10.3373   -7.1234 C.ar      1 <0>        -0.0226
     31 C24        -3.5641   -9.8187   -5.8524 C.ar      1 <0>        -0.0869
     32 N5         -0.4089   -2.5610   -2.1075 N.4       1 <0>        -0.6374
     33 H3         -0.9618    1.8824    0.0259 H         1 <0>         0.1370
     34 H4          1.1354    3.1641    0.0078 H         1 <0>         0.1408
     35 H5          3.2924    2.0228   -0.0188 H         1 <0>         0.1366
     36 H6         -0.9240   -0.5597    0.0082 H         1 <0>         0.1242
     37 H7          1.1390   -4.1068    0.4816 H         1 <0>         0.1385
     38 H8         -0.2497   -2.9934    0.5017 H         1 <0>         0.1192
     39 H9         -0.0084   -5.7067   -0.9104 H         1 <0>         0.1176
     40 H10        -1.4823   -4.7122   -0.9937 H         1 <0>         0.0962
     41 H11        -1.3353   -6.4518   -5.1378 H         1 <0>         0.1501
     42 H12        -3.5901   -9.6268   -3.3404 H         1 <0>         0.1678
     43 H13        -1.8100   -6.7830   -0.9003 H         1 <0>         0.1598
     44 H14        -1.6909   -7.1464   -6.7803 H         1 <0>         0.1288
     45 H15        -2.1494   -8.0285   -9.0001 H         1 <0>         0.1400
     46 H16        -3.2343   -9.7575  -10.4302 H         1 <0>         0.1672
     47 H17        -5.4365  -12.8322   -8.7181 H         1 <0>         0.1587
     48 H18        -5.0319  -12.0213   -6.4555 H         1 <0>         0.1430
     49 H19        -3.9477  -10.3062   -4.9684 H         1 <0>         0.1390
     50 H20        -0.6286   -2.8179   -3.0582 H         1 <0>         0.4433
     51 H21        -1.2636   -2.3904   -1.5991 H         1 <0>         0.4326
     52 H22         0.1554   -1.7246   -2.1070 H         1 <0>         0.4373
@<TRIPOS>BOND
     1    1    6 ar
     2    1    2 ar
     3    1   33 1
     4    2    3 ar
     5    2   34 1
     6    3    4 ar
     7    3   35 1
     8    4    9 1
     9    4    5 ar
    10    5    6 ar
    11    5    7 1
    12    6   36 1
    13    7    8 2
    14    7   11 1
    15    8    9 1
    16    9   10 1
    17   11   12 1
    18   11   37 1
    19   11   38 1
    20   12   13 1
    21   12   14 1
    22   12   32 1
    23   14   15 1
    24   14   39 1
    25   14   40 1
    26   15   16 1
    27   16   21 ar
    28   16   17 ar
    29   17   18 ar
    30   17   41 1
    31   18   19 ar
    32   18   22 1
    33   19   20 ar
    34   19   42 1
    35   20   21 ar
    36   21   43 1
    37   22   31 ar
    38   22   23 ar
    39   23   24 ar
    40   23   44 1
    41   24   25 ar
    42   24   45 1
    43   25   30 ar
    44   25   26 ar
    45   26   27 ar
    46   26   46 1
    47   27   28 ar
    48   28   29 ar
    49   28   47 1
    50   29   30 ar
    51   29   48 1
    52   30   31 ar
    53   31   49 1
    54   32   50 1
    55   32   51 1
    56   32   52 1
@<TRIPOS>MOLECULE
CHEMBL512305
   45    48     0     0     0
SMALL
USER_CHARGES

@<TRIPOS>ATOM
      1 C1         -0.0167    1.3781    0.0096 C.ar      1 <0>        -0.0952
      2 C2          1.1709    2.0855    0.0021 C.ar      1 <0>        -0.1097
      3 C3          2.3773    1.4107   -0.0130 C.ar      1 <0>        -0.0946
      4 C4          2.3960    0.0285   -0.0201 C.ar      1 <0>        -0.1231
      5 C5          1.2084   -0.6789   -0.0117 C.ar      1 <0>        -0.1105
      6 C6          0.0021   -0.0041    0.0020 C.ar      1 <0>        -0.1098
      7 C7          3.7112   -0.7071   -0.0376 C.3       1 <0>         0.1717
      8 C8          4.0191   -1.1676   -1.4638 C.3       1 <0>        -0.0183
      9 N1          5.2387   -1.9864   -1.4614 N.4       1 <0>        -0.6343
     10 N2          3.6301   -1.8734    0.8453 N.am      1 <0>        -0.7337
     11 C9          4.7514   -2.3850    1.3907 C.2       1 <0>         0.6121
     12 O1          5.8313   -1.8781    1.1497 O.2       1 <0>        -0.5403
     13 C10         4.6703   -3.5521    2.2743 C.2       1 <0>        -0.3100
     14 C11         5.6911   -4.2167    2.9304 C.2       1 <0>        -0.0257
     15 C12         5.3076   -5.2974    3.7049 C.2       1 <0>        -0.0696
     16 C13         3.9708   -5.6192    3.7606 C.2       1 <0>        -0.1901
     17 S1          3.2310   -4.4712    2.7830 S.3       1 <0>         0.2361
     18 C14         6.3132   -6.0901    4.4566 C.2       1 <0>        -0.1285
     19 C15         7.4643   -6.6076    3.9680 C.2       1 <0>         0.0893
     20 N3          8.1295   -7.2749    4.9619 N.pl3     1 <0>        -0.5757
     21 H1          8.9794   -7.7295    4.8523 H         1 <0>         0.4256
     22 C16         7.4194   -7.2080    6.1371 C.ar      1 <0>         0.2882
     23 C17         6.2556   -6.4605    5.8780 C.ar      1 <0>        -0.1390
     24 C18         5.3440   -6.2287    6.9080 C.ar      1 <0>        -0.0320
     25 C19         5.6287   -6.7478    8.1578 C.ar      1 <0>        -0.1932
     26 C20         6.7957   -7.4722    8.3434 C.ar      1 <0>         0.1446
     27 N4          7.6388   -7.6853    7.3555 N.ar      1 <0>        -0.4954
     28 H2         -0.9591    1.9053    0.0259 H         1 <0>         0.1331
     29 H3          1.1563    3.1654    0.0076 H         1 <0>         0.1340
     30 H4          3.3051    1.9634   -0.0196 H         1 <0>         0.1303
     31 H5          1.2231   -1.7588   -0.0176 H         1 <0>         0.1223
     32 H6         -0.9258   -0.5567    0.0082 H         1 <0>         0.1331
     33 H7          4.5034   -0.0434    0.3089 H         1 <0>         0.1264
     34 H8          3.1853   -1.7587   -1.8427 H         1 <0>         0.1392
     35 H9          4.1672   -0.2970   -2.1027 H         1 <0>         0.1515
     36 H10         6.0105   -1.4392   -1.1107 H         1 <0>         0.4425
     37 H11         5.1016   -2.7923   -0.8700 H         1 <0>         0.4269
     38 H12         2.7694   -2.2773    1.0375 H         1 <0>         0.4153
     39 H13         6.7234   -3.9113    2.8432 H         1 <0>         0.1537
     40 H14         3.5038   -6.4228    4.3106 H         1 <0>         0.1960
     41 H15         7.8064   -6.5095    2.9484 H         1 <0>         0.1802
     42 H16         4.4424   -5.6601    6.7346 H         1 <0>         0.1316
     43 H17         4.9483   -6.5900    8.9814 H         1 <0>         0.1421
     44 H18         7.0156   -7.8762    9.3206 H         1 <0>         0.1661
     45 H19         5.4418   -2.2901   -2.4020 H         1 <0>         0.4370
@<TRIPOS>BOND
     1    1    6 ar
     2    1    2 ar
     3    1   28 1
     4    2    3 ar
     5    2   29 1
     6    3    4 ar
     7    3   30 1
     8    4    5 ar
     9    4    7 1
    10    5    6 ar
    11    5   31 1
    12    6   32 1
    13    7    8 1
    14    7   10 1
    15    7   33 1
    16    8    9 1
    17    8   34 1
    18    8   35 1
    19    9   36 1
    20    9   37 1
    21    9   45 1
    22   10   11 am
    23   10   38 1
    24   11   12 2
    25   11   13 1
    26   13   17 1
    27   13   14 2
    28   14   15 1
    29   14   39 1
    30   15   16 2
    31   15   18 1
    32   16   17 1
    33   16   40 1
    34   18   23 1
    35   18   19 2
    36   19   20 1
    37   19   41 1
    38   20   21 1
    39   20   22 1
    40   22   27 ar
    41   22   23 ar
    42   23   24 ar
    43   24   25 ar
    44   24   42 1
    45   25   26 ar
    46   25   43 1
    47   26   27 ar
    48   26   44 1
@<TRIPOS>MOLECULE
CHEMBL512305
   45    48     0     0     0
SMALL
USER_CHARGES

@<TRIPOS>ATOM
      1 C1         -0.0167    1.3781    0.0096 C.ar      1 <0>        -0.0952
      2 C2          1.1709    2.0855    0.0021 C.ar      1 <0>        -0.1097
      3 C3          2.3773    1.4107   -0.0130 C.ar      1 <0>        -0.0947
      4 C4          2.3960    0.0285   -0.0201 C.ar      1 <0>        -0.1231
      5 C5          1.2084   -0.6789   -0.0117 C.ar      1 <0>        -0.1105
      6 C6          0.0021   -0.0041    0.0020 C.ar      1 <0>        -0.1098
      7 C7          3.7112   -0.7071   -0.0376 C.3       1 <0>         0.1718
      8 C8          4.0489   -1.1818    1.3772 C.3       1 <0>        -0.0185
      9 N1          5.2681   -2.0004    1.3411 N.4       1 <0>        -0.6344
     10 N2          3.6115   -1.8645   -0.9302 N.am      1 <0>        -0.7338
     11 C9          4.7211   -2.3705   -1.5040 C.2       1 <0>         0.6122
     12 O1          5.8058   -1.8660   -1.2806 O.2       1 <0>        -0.5403
     13 C10         4.6213   -3.5287   -2.3973 C.2       1 <0>        -0.3100
     14 C11         5.6295   -4.1937   -3.0724 C.2       1 <0>        -0.0261
     15 C12         5.2294   -5.2652   -3.8513 C.2       1 <0>        -0.0692
     16 C13         3.8901   -5.5784   -3.8925 C.2       1 <0>        -0.1901
     17 S1          3.1718   -4.4436   -2.8839 S.3       1 <0>         0.2362
     18 C14         6.2203   -6.0566   -4.6236 C.2       1 <0>        -0.1305
     19 C15         7.1770   -5.5710   -5.4484 C.2       1 <0>         0.0920
     20 N3          7.8978   -6.6067   -5.9805 N.pl3     1 <0>        -0.5754
     21 H1          8.6373   -6.5072   -6.6004 H         1 <0>         0.4260
     22 C16         7.4227   -7.8078   -5.5097 C.ar      1 <0>         0.2880
     23 C17         6.3574   -7.5202   -4.6364 C.ar      1 <0>        -0.1384
     24 C18         5.6856   -8.5662   -4.0038 C.ar      1 <0>        -0.0328
     25 C19         6.1034   -9.8588   -4.2631 C.ar      1 <0>        -0.1940
     26 C20         7.1624  -10.0697   -5.1320 C.ar      1 <0>         0.1437
     27 N4          7.7778   -9.0681   -5.7239 N.ar      1 <0>        -0.4948
     28 H2         -0.9591    1.9053    0.0259 H         1 <0>         0.1331
     29 H3          1.1563    3.1654    0.0076 H         1 <0>         0.1340
     30 H4          3.3051    1.9634   -0.0196 H         1 <0>         0.1303
     31 H5          1.2231   -1.7588   -0.0176 H         1 <0>         0.1223
     32 H6         -0.9258   -0.5567    0.0082 H         1 <0>         0.1331
     33 H7          4.4960   -0.0399   -0.3940 H         1 <0>         0.1264
     34 H8          4.2104   -0.3176    2.0215 H         1 <0>         0.1515
     35 H9          3.2232   -1.7768    1.7676 H         1 <0>         0.1392
     36 H10         5.1186   -2.8004    0.7447 H         1 <0>         0.4270
     37 H11         6.0324   -1.4496    0.9797 H         1 <0>         0.4425
     38 H12         2.7469   -2.2666   -1.1082 H         1 <0>         0.4153
     39 H13         6.6646   -3.8947   -2.9965 H         1 <0>         0.1537
     40 H14         3.4112   -6.3744   -4.4433 H         1 <0>         0.1959
     41 H15         7.3461   -4.5247   -5.6562 H         1 <0>         0.1815
     42 H16         4.8635   -8.3723   -3.3309 H         1 <0>         0.1310
     43 H17         5.6093  -10.6960   -3.7927 H         1 <0>         0.1416
     44 H18         7.4868  -11.0802   -5.3324 H         1 <0>         0.1658
     45 H19         5.4908   -2.3134    2.2741 H         1 <0>         0.4371
@<TRIPOS>BOND
     1    1    6 ar
     2    1    2 ar
     3    1   28 1
     4    2    3 ar
     5    2   29 1
     6    3    4 ar
     7    3   30 1
     8    4    5 ar
     9    4    7 1
    10    5    6 ar
    11    5   31 1
    12    6   32 1
    13    7    8 1
    14    7   10 1
    15    7   33 1
    16    8    9 1
    17    8   34 1
    18    8   35 1
    19    9   36 1
    20    9   37 1
    21    9   45 1
    22   10   11 am
    23   10   38 1
    24   11   12 2
    25   11   13 1
    26   13   17 1
    27   13   14 2
    28   14   15 1
    29   14   39 1
    30   15   16 2
    31   15   18 1
    32   16   17 1
    33   16   40 1
    34   18   23 1
    35   18   19 2
    36   19   20 1
    37   19   41 1
    38   20   21 1
    39   20   22 1
    40   22   27 ar
    41   22   23 ar
    42   23   24 ar
    43   24   25 ar
    44   24   42 1
    45   25   26 ar
    46   25   43 1
    47   26   27 ar
    48   26   44 1
@<TRIPOS>MOLECULE
CHEMBL475838
   60    64     0     0     0
SMALL
USER_CHARGES

@<TRIPOS>ATOM
      1 C1         -0.0221    1.5266   -0.0286 C.3       1 <0>        -0.1572
      2 C2         -0.0002   -0.0033   -0.0245 C.3       1 <0>         0.0640
      3 H1          0.5085   -0.3619   -0.9193 H         1 <0>         0.0836
      4 C3         -1.4359   -0.5344   -0.0059 C.3       1 <0>         0.0561
      5 H2         -1.9577   -0.1432    0.8675 H         1 <0>         0.0918
      6 C4         -1.4052   -2.0645    0.0589 C.3       1 <0>         0.0317
      7 H3         -0.9274   -2.4579   -0.8383 H         1 <0>         0.1481
      8 C5         -0.6096   -2.4963    1.2945 C.3       1 <0>        -0.1750
      9 C6          0.7942   -1.8895    1.2257 C.3       1 <0>         0.1400
     10 H4          1.3134   -2.2730    0.3474 H         1 <0>         0.0901
     11 O1          0.6931   -0.4668    1.1359 O.3       1 <0>        -0.3523
     12 C7          1.5639   -2.2615    2.4667 C.ar      1 <0>        -0.0816
     13 C8          1.3504   -1.5657    3.6411 C.ar      1 <0>        -0.0651
     14 C9          2.0501   -1.8963    4.7912 C.ar      1 <0>        -0.0631
     15 C10         2.9731   -2.9352    4.7631 C.ar      1 <0>        -0.1018
     16 C11         3.1903   -3.6429    3.5674 C.ar      1 <0>        -0.1201
     17 C12         2.4776   -3.3034    2.4240 C.ar      1 <0>        -0.0481
     18 C13         4.1739   -4.7434    3.5554 C.2       1 <0>         0.4301
     19 O2          4.3754   -5.3632    2.5301 O.2       1 <0>        -0.4062
     20 C14         4.9161   -5.0948    4.7864 C.2       1 <0>        -0.1138
     21 C15         4.7118   -4.4252    5.9268 C.2       1 <0>        -0.1072
     22 C16         3.7329   -3.3119    5.9703 C.2       1 <0>         0.4188
     23 O3          3.5561   -2.7048    7.0077 O.2       1 <0>        -0.3972
     24 C17         5.4414   -4.7580    7.1963 C.3       1 <0>         0.0944
     25 H5          5.8296   -3.8470    7.6518 H         1 <0>         0.1224
     26 C18         6.5899   -5.7578    6.9578 C.3       1 <0>         0.0572
     27 H6          7.5227   -5.2669    6.6803 H         1 <0>         0.1218
     28 C19         6.6671   -6.4507    8.3445 C.3       1 <0>        -0.1742
     29 C20         5.3336   -6.1275    8.9908 C.2       1 <0>         0.4830
     30 O4          5.0067   -6.4295   10.1141 O.2       1 <0>        -0.4319
     31 O5          4.5670   -5.4331    8.1168 O.3       1 <0>        -0.3245
     32 O6          6.1755   -6.7270    5.9922 O.3       1 <0>        -0.3463
     33 C21         5.9095   -6.2278    4.7121 C.3       1 <0>         0.1292
     34 H7          5.5138   -7.0149    4.0704 H         1 <0>         0.1412
     35 C22         7.2262   -5.7119    4.1280 C.3       1 <0>        -0.1854
     36 N1         -2.7777   -2.5801    0.1510 N.4       1 <0>        -0.3799
     37 C23        -2.7554   -4.0472    0.0805 C.3       1 <0>        -0.0527
     38 C24        -3.3739   -2.1601    1.4262 C.3       1 <0>        -0.0604
     39 O7         -2.1142   -0.1190   -1.1932 O.3       1 <0>        -0.5635
     40 H8          1.0002    1.9045   -0.0414 H         1 <0>         0.0850
     41 H9         -0.5513    1.8800   -0.9136 H         1 <0>         0.0812
     42 H10        -0.5309    1.8850    0.8663 H         1 <0>         0.0730
     43 H11        -1.1147   -2.1448    2.1942 H         1 <0>         0.1066
     44 H12        -0.5356   -3.5836    1.3184 H         1 <0>         0.1127
     45 H13         0.6335   -0.7583    3.6632 H         1 <0>         0.1446
     46 H14         1.8790   -1.3482    5.7060 H         1 <0>         0.1523
     47 H15         2.6374   -3.8467    1.5044 H         1 <0>         0.1486
     48 H16         6.7840   -7.5280    8.2275 H         1 <0>         0.1369
     49 H17         7.4868   -6.0381    8.9327 H         1 <0>         0.1354
     50 H18         7.6221   -4.9220    4.7663 H         1 <0>         0.0642
     51 H19         7.9448   -6.5297    4.0739 H         1 <0>         0.0866
     52 H20         7.0497   -5.3166    3.1277 H         1 <0>         0.0759
     53 H21        -2.2291   -4.3597   -0.8214 H         1 <0>         0.1254
     54 H22        -2.2431   -4.4453    0.9564 H         1 <0>         0.1228
     55 H23        -3.7774   -4.4253    0.0543 H         1 <0>         0.1291
     56 H24        -3.3905   -1.0715    1.4785 H         1 <0>         0.1229
     57 H25        -4.3923   -2.5427    1.4946 H         1 <0>         0.1301
     58 H26        -2.7814   -2.5546    2.2517 H         1 <0>         0.1257
     59 H27        -2.1668    0.8405   -1.3008 H         1 <0>         0.4086
     60 H28        -3.3262   -2.2149   -0.6131 H         1 <0>         0.4364
@<TRIPOS>BOND
     1    1    2 1
     2    1   40 1
     3    1   41 1
     4    1   42 1
     5    2    3 1
     6    2   11 1
     7    2    4 1
     8    4    5 1
     9    4    6 1
    10    4   39 1
    11    6    7 1
    12    6    8 1
    13    6   36 1
    14    8    9 1
    15    8   43 1
    16    8   44 1
    17    9   10 1
    18    9   11 1
    19    9   12 1
    20   12   17 ar
    21   12   13 ar
    22   13   14 ar
    23   13   45 1
    24   14   15 ar
    25   14   46 1
    26   15   22 1
    27   15   16 ar
    28   16   17 ar
    29   16   18 1
    30   17   47 1
    31   18   19 2
    32   18   20 1
    33   20   33 1
    34   20   21 2
    35   21   22 1
    36   21   24 1
    37   22   23 2
    38   24   25 1
    39   24   31 1
    40   24   26 1
    41   26   27 1
    42   26   28 1
    43   26   32 1
    44   28   29 1
    45   28   48 1
    46   28   49 1
    47   29   30 2
    48   29   31 1
    49   32   33 1
    50   33   34 1
    51   33   35 1
    52   35   50 1
    53   35   51 1
    54   35   52 1
    55   36   37 1
    56   36   38 1
    57   36   60 1
    58   37   53 1
    59   37   54 1
    60   37   55 1
    61   38   56 1
    62   38   57 1
    63   38   58 1
    64   39   59 1
@<TRIPOS>MOLECULE
CHEMBL211865
   52    56     0     0     0
SMALL
USER_CHARGES

@<TRIPOS>ATOM
      1 C1         -0.0164    1.3552    0.0095 C.ar      1 <0>        -0.0980
      2 C2          1.1573    2.0973    0.0023 C.ar      1 <0>        -0.0874
      3 C3          2.3741    1.4452   -0.0128 C.ar      1 <0>        -0.0571
      4 C4          2.4061    0.0671   -0.0204 C.ar      1 <0>        -0.1159
      5 C5          1.2281   -0.7107   -0.0134 C.ar      1 <0>        -0.1069
      6 C6          0.0021   -0.0041    0.0020 C.ar      1 <0>        -0.1272
      7 C7          1.4506   -2.1491   -0.0232 C.2       1 <0>        -0.1657
      8 C8          2.7062   -2.6192   -0.0376 C.2       1 <0>        -0.1169
      9 S1          3.7042   -1.1421   -0.0393 S.3       1 <0>         0.0895
     10 C9          0.2817   -3.1002   -0.0167 C.3       1 <0>        -0.0814
     11 C10        -0.2074   -3.3170   -1.4501 C.3       1 <0>         0.0435
     12 H1          0.6233   -3.6535   -2.0704 H         1 <0>         0.1564
     13 C11        -1.3113   -4.3763   -1.4575 C.3       1 <0>         0.0271
     14 O1         -1.6870   -4.6633   -2.8061 O.3       1 <0>        -0.3216
     15 C12        -2.6635   -5.5906   -2.9906 C.ar      1 <0>         0.0677
     16 C13        -3.0796   -5.9281   -4.2723 C.ar      1 <0>        -0.0909
     17 C14        -4.0859   -6.8869   -4.4100 C.ar      1 <0>        -0.0476
     18 C15        -4.6299   -7.4641   -3.2638 C.ar      1 <0>         0.0904
     19 N1         -4.2051   -7.1136   -2.0675 N.ar      1 <0>        -0.4382
     20 C16        -3.2531   -6.2163   -1.9010 C.ar      1 <0>         0.0246
     21 C17        -4.5685   -7.2844   -5.7553 C.ar      1 <0>        -0.0369
     22 C18        -4.0046   -6.6958   -6.8988 C.ar      1 <0>        -0.1140
     23 C19        -4.4271   -7.0407   -8.1433 C.ar      1 <0>        -0.0740
     24 C20        -5.4421   -7.9999   -8.2960 C.ar      1 <0>        -0.1088
     25 C21        -5.9106   -8.3884   -9.5613 C.ar      1 <0>         0.1483
     26 N2         -6.8606   -9.2887   -9.6601 N.ar      1 <0>        -0.4812
     27 C22        -7.4159   -9.8658   -8.6032 C.ar      1 <0>         0.0853
     28 C23        -7.0333   -9.5587   -7.3330 C.ar      1 <0>        -0.1542
     29 C24        -6.0183   -8.6012   -7.1461 C.ar      1 <0>        -0.0227
     30 C25        -5.5658   -8.2357   -5.8722 C.ar      1 <0>        -0.0868
     31 N3         -0.7366   -2.0545   -1.9831 N.4       1 <0>        -0.6385
     32 H2         -0.9657    1.8698    0.0259 H         1 <0>         0.1372
     33 H3          1.1186    3.1766    0.0080 H         1 <0>         0.1454
     34 H4          3.2942    2.0107   -0.0189 H         1 <0>         0.1420
     35 H5         -0.9293   -0.5508    0.0079 H         1 <0>         0.1143
     36 H6          3.0347   -3.6480   -0.0458 H         1 <0>         0.1993
     37 H7          0.5920   -4.0542    0.4096 H         1 <0>         0.1279
     38 H8         -0.5255   -2.6797    0.5830 H         1 <0>         0.1034
     39 H9         -0.9454   -5.2858   -0.9809 H         1 <0>         0.1156
     40 H10        -2.1771   -4.0027   -0.9108 H         1 <0>         0.0929
     41 H11        -2.6369   -5.4610   -5.1396 H         1 <0>         0.1502
     42 H12        -5.4086   -8.2066   -3.3578 H         1 <0>         0.1680
     43 H13        -2.9308   -5.9614   -0.9023 H         1 <0>         0.1589
     44 H14        -3.2240   -5.9578   -6.7875 H         1 <0>         0.1287
     45 H15        -3.9839   -6.5784   -9.0130 H         1 <0>         0.1402
     46 H16        -5.4899   -7.9466  -10.4525 H         1 <0>         0.1673
     47 H17        -8.1938  -10.5997   -8.7541 H         1 <0>         0.1588
     48 H18        -7.4992  -10.0400   -6.4858 H         1 <0>         0.1430
     49 H19        -5.9936   -8.6892   -4.9903 H         1 <0>         0.1389
     50 H20        -0.0086   -1.3559   -1.9781 H         1 <0>         0.4371
     51 H21        -1.0592   -2.1975   -2.9284 H         1 <0>         0.4407
     52 H22        -1.5056   -1.7431   -1.4088 H         1 <0>         0.4293
@<TRIPOS>BOND
     1    1    6 ar
     2    1    2 ar
     3    1   32 1
     4    2    3 ar
     5    2   33 1
     6    3    4 ar
     7    3   34 1
     8    4    9 1
     9    4    5 ar
    10    5    6 ar
    11    5    7 1
    12    6   35 1
    13    7    8 2
    14    7   10 1
    15    8    9 1
    16    8   36 1
    17   10   11 1
    18   10   37 1
    19   10   38 1
    20   11   12 1
    21   11   13 1
    22   11   31 1
    23   13   14 1
    24   13   39 1
    25   13   40 1
    26   14   15 1
    27   15   20 ar
    28   15   16 ar
    29   16   17 ar
    30   16   41 1
    31   17   18 ar
    32   17   21 1
    33   18   19 ar
    34   18   42 1
    35   19   20 ar
    36   20   43 1
    37   21   30 ar
    38   21   22 ar
    39   22   23 ar
    40   22   44 1
    41   23   24 ar
    42   23   45 1
    43   24   29 ar
    44   24   25 ar
    45   25   26 ar
    46   25   46 1
    47   26   27 ar
    48   27   28 ar
    49   27   47 1
    50   28   29 ar
    51   28   48 1
    52   29   30 ar
    53   30   49 1
    54   31   50 1
    55   31   51 1
    56   31   52 1
@<TRIPOS>MOLECULE
CHEMBL181730
   67    73     0     0     0
SMALL
USER_CHARGES

@<TRIPOS>ATOM
      1 C1         -0.0167    1.3791    0.0096 C.ar      1 <0>        -0.1183
      2 C2          1.1686    2.0923    0.0021 C.ar      1 <0>        -0.1128
      3 C3          2.3774    1.4267   -0.0135 C.ar      1 <0>        -0.1026
      4 C4          2.4025    0.0330   -0.0212 C.ar      1 <0>        -0.0346
      5 C5          1.2049   -0.6804   -0.0131 C.ar      1 <0>        -0.1030
      6 C6          0.0021   -0.0041    0.0020 C.ar      1 <0>        -0.1256
      7 C7          3.6980   -0.6879   -0.0385 C.ar      1 <0>        -0.0819
      8 C8          4.6841   -0.3489   -0.9627 C.ar      1 <0>        -0.0530
      9 C9          5.8876   -1.0590   -0.9374 C.ar      1 <0>         0.0308
     10 C10         6.0599   -2.0752    0.0049 C.ar      1 <0>         0.1184
     11 N1          5.1084   -2.3706    0.8635 N.ar      1 <0>        -0.4618
     12 C11         3.9526   -1.7194    0.8804 C.ar      1 <0>         0.1163
     13 C12         2.9179   -2.0881    1.8739 C.ar      1 <0>         0.0226
     14 C13         2.0882   -1.1075    2.4175 C.ar      1 <0>        -0.0914
     15 C14         1.1261   -1.4572    3.3427 C.ar      1 <0>        -0.0985
     16 C15         0.9836   -2.7773    3.7314 C.ar      1 <0>        -0.1704
     17 C16         1.8039   -3.7543    3.1962 C.ar      1 <0>        -0.0957
     18 C17         2.7655   -3.4181    2.2655 C.ar      1 <0>        -0.0868
     19 C18        -0.0692   -3.1524    4.7423 C.3       1 <0>         0.0477
     20 N2         -1.3218   -3.4774    4.0472 N.4       1 <0>        -0.3841
     21 C19        -1.8302   -2.2776    3.3716 C.3       1 <0>        -0.0126
     22 C20        -3.0912   -2.6295    2.5794 C.3       1 <0>        -0.1384
     23 C21        -4.1568   -3.1671    3.5389 C.3       1 <0>        -0.0158
     24 C22        -3.5893   -4.3736    4.2922 C.3       1 <0>        -0.1474
     25 C23        -2.3098   -3.9571    5.0210 C.3       1 <0>        -0.0026
     26 C24        -5.3734   -3.5888    2.7558 C.2       1 <0>         0.2732
     27 N3         -6.4178   -2.8432    2.5427 N.2       1 <0>        -0.4656
     28 C25        -7.3262   -3.5305    1.8026 C.ar      1 <0>         0.0340
     29 C26        -8.5919   -3.2187    1.2992 C.ar      1 <0>        -0.0267
     30 C27        -9.2820   -4.1446    0.5697 C.ar      1 <0>        -0.1545
     31 C28        -8.7380   -5.3990    0.3210 C.ar      1 <0>         0.1329
     32 C29        -7.4894   -5.7282    0.8092 C.ar      1 <0>        -0.1551
     33 C30        -6.7748   -4.7982    1.5521 C.ar      1 <0>         0.0809
     34 N4         -5.5371   -4.8031    2.1635 N.pl3     1 <0>        -0.5949
     35 F1         -9.4355   -6.3019   -0.4026 F         1 <0>        -0.1276
     36 C31         6.9664   -0.7381   -1.8979 C.2       1 <0>         0.0616
     37 N5          8.1586   -1.3306   -1.9867 N.2       1 <0>        -0.3572
     38 N6          8.8029   -0.7623   -2.9479 N.2       1 <0>        -0.1778
     39 N7          8.0683    0.1592   -3.4652 N.2       1 <0>        -0.1789
     40 N8          6.9362    0.1967   -2.8494 N.2       1 <0>        -0.3588
     41 H1         -0.9603    1.9042    0.0260 H         1 <0>         0.1218
     42 H2          1.1479    3.1721    0.0082 H         1 <0>         0.1269
     43 H3          3.3022    1.9845   -0.0200 H         1 <0>         0.1295
     44 H4          1.2184   -1.7603   -0.0194 H         1 <0>         0.1178
     45 H5         -0.9264   -0.5557    0.0083 H         1 <0>         0.1173
     46 H6          4.5225    0.4418   -1.6803 H         1 <0>         0.1476
     47 H7          6.9880   -2.6270    0.0287 H         1 <0>         0.1720
     48 H8          2.1987   -0.0766    2.1151 H         1 <0>         0.1413
     49 H9          0.4832   -0.6988    3.7645 H         1 <0>         0.1299
     50 H10         1.6884   -4.7831    3.5041 H         1 <0>         0.1295
     51 H11         3.4019   -4.1824    1.8445 H         1 <0>         0.1409
     52 H12         0.2661   -4.0195    5.3114 H         1 <0>         0.1361
     53 H13        -0.2365   -2.3155    5.4203 H         1 <0>         0.1350
     54 H14        -2.0689   -1.5165    4.1144 H         1 <0>         0.1341
     55 H15        -1.0696   -1.8943    2.6915 H         1 <0>         0.1417
     56 H16        -3.4682   -1.7370    2.0799 H         1 <0>         0.1227
     57 H17        -2.8536   -3.3904    1.8360 H         1 <0>         0.0891
     58 H18        -4.4320   -2.3892    4.2510 H         1 <0>         0.1269
     59 H19        -4.3222   -4.7277    5.0172 H         1 <0>         0.1201
     60 H20        -3.3619   -5.1707    3.5844 H         1 <0>         0.0863
     61 H21        -1.9032   -4.8137    5.5586 H         1 <0>         0.1364
     62 H22        -2.5383   -3.1602    5.7287 H         1 <0>         0.1352
     63 H23        -9.0241   -2.2469    1.4869 H         1 <0>         0.1455
     64 H24       -10.2600   -3.8995    0.1827 H         1 <0>         0.1491
     65 H25        -7.0704   -6.7043    0.6140 H         1 <0>         0.1393
     66 H26        -1.1482   -4.1982    3.3628 H         1 <0>         0.4218
     67 H27        -4.9024   -5.5367    2.1709 H         1 <0>         0.4220
@<TRIPOS>BOND
     1    1    6 ar
     2    1    2 ar
     3    1   41 1
     4    2    3 ar
     5    2   42 1
     6    3    4 ar
     7    3   43 1
     8    4    5 ar
     9    4    7 1
    10    5    6 ar
    11    5   44 1
    12    6   45 1
    13    7   12 ar
    14    7    8 ar
    15    8    9 ar
    16    8   46 1
    17    9   10 ar
    18    9   36 1
    19   10   11 ar
    20   10   47 1
    21   11   12 ar
    22   12   13 1
    23   13   18 ar
    24   13   14 ar
    25   14   15 ar
    26   14   48 1
    27   15   16 ar
    28   15   49 1
    29   16   17 ar
    30   16   19 1
    31   17   18 ar
    32   17   50 1
    33   18   51 1
    34   19   20 1
    35   19   52 1
    36   19   53 1
    37   20   25 1
    38   20   21 1
    39   20   66 1
    40   21   22 1
    41   21   54 1
    42   21   55 1
    43   22   23 1
    44   22   56 1
    45   22   57 1
    46   23   24 1
    47   23   26 1
    48   23   58 1
    49   24   25 1
    50   24   59 1
    51   24   60 1
    52   25   61 1
    53   25   62 1
    54   26   34 1
    55   26   27 2
    56   27   28 1
    57   28   33 ar
    58   28   29 ar
    59   29   30 ar
    60   29   63 1
    61   30   31 ar
    62   30   64 1
    63   31   32 ar
    64   31   35 1
    65   32   33 ar
    66   32   65 1
    67   33   34 1
    68   34   67 1
    69   36   37 2
    70   36   40 1
    71   37   38 1
    72   38   39 2
    73   39   40 1
@<TRIPOS>MOLECULE
CHEMBL181730
   67    73     0     0     0
SMALL
USER_CHARGES

@<TRIPOS>ATOM
      1 C1         -0.0167    1.3791    0.0096 C.ar      1 <0>        -0.1183
      2 C2          1.1686    2.0923    0.0021 C.ar      1 <0>        -0.1127
      3 C3          2.3774    1.4267   -0.0135 C.ar      1 <0>        -0.1026
      4 C4          2.4025    0.0330   -0.0212 C.ar      1 <0>        -0.0347
      5 C5          1.2049   -0.6804   -0.0131 C.ar      1 <0>        -0.1030
      6 C6          0.0021   -0.0041    0.0020 C.ar      1 <0>        -0.1256
      7 C7          3.6980   -0.6879   -0.0385 C.ar      1 <0>        -0.0819
      8 C8          4.6841   -0.3489   -0.9627 C.ar      1 <0>        -0.0530
      9 C9          5.8876   -1.0590   -0.9374 C.ar      1 <0>         0.0308
     10 C10         6.0599   -2.0752    0.0049 C.ar      1 <0>         0.1184
     11 N1          5.1084   -2.3706    0.8635 N.ar      1 <0>        -0.4617
     12 C11         3.9526   -1.7194    0.8804 C.ar      1 <0>         0.1163
     13 C12         2.9179   -2.0881    1.8739 C.ar      1 <0>         0.0227
     14 C13         2.0882   -1.1075    2.4175 C.ar      1 <0>        -0.0914
     15 C14         1.1261   -1.4572    3.3427 C.ar      1 <0>        -0.0985
     16 C15         0.9836   -2.7773    3.7314 C.ar      1 <0>        -0.1705
     17 C16         1.8039   -3.7543    3.1962 C.ar      1 <0>        -0.0957
     18 C17         2.7655   -3.4181    2.2655 C.ar      1 <0>        -0.0868
     19 C18        -0.0692   -3.1524    4.7423 C.3       1 <0>         0.0477
     20 N2         -1.3218   -3.4774    4.0472 N.4       1 <0>        -0.3841
     21 C19        -1.8302   -2.2776    3.3716 C.3       1 <0>        -0.0126
     22 C20        -3.0912   -2.6295    2.5794 C.3       1 <0>        -0.1383
     23 C21        -4.1568   -3.1671    3.5389 C.3       1 <0>        -0.0172
     24 C22        -3.5893   -4.3736    4.2922 C.3       1 <0>        -0.1472
     25 C23        -2.3098   -3.9571    5.0210 C.3       1 <0>        -0.0026
     26 C24        -5.3734   -3.5888    2.7558 C.2       1 <0>         0.2809
     27 N3         -5.5391   -4.8043    2.1684 N.pl3     1 <0>        -0.5947
     28 H1         -4.9064   -5.5395    2.1798 H         1 <0>         0.4220
     29 C25        -6.7761   -4.7978    1.5528 C.ar      1 <0>         0.0430
     30 C26        -7.4887   -5.7286    0.8095 C.ar      1 <0>        -0.0811
     31 C27        -8.7357   -5.4059    0.3194 C.ar      1 <0>        -0.1234
     32 C28        -9.2857   -4.1532    0.5640 C.ar      1 <0>         0.1013
     33 C29        -8.5923   -3.2172    1.2998 C.ar      1 <0>        -0.1007
     34 C30        -7.3268   -3.5301    1.8038 C.ar      1 <0>         0.0725
     35 N4         -6.4206   -2.8451    2.5478 N.2       1 <0>        -0.4720
     36 F1        -10.5088   -3.8509    0.0763 F         1 <0>        -0.1300
     37 C31         6.9664   -0.7381   -1.8979 C.2       1 <0>         0.0616
     38 N5          8.1586   -1.3306   -1.9867 N.2       1 <0>        -0.3572
     39 N6          8.8029   -0.7623   -2.9479 N.2       1 <0>        -0.1778
     40 N7          8.0683    0.1592   -3.4652 N.2       1 <0>        -0.1788
     41 N8          6.9362    0.1967   -2.8494 N.2       1 <0>        -0.3588
     42 H2         -0.9603    1.9042    0.0260 H         1 <0>         0.1218
     43 H3          1.1479    3.1721    0.0082 H         1 <0>         0.1269
     44 H4          3.3022    1.9845   -0.0200 H         1 <0>         0.1295
     45 H5          1.2184   -1.7603   -0.0194 H         1 <0>         0.1178
     46 H6         -0.9264   -0.5557    0.0083 H         1 <0>         0.1173
     47 H7          4.5225    0.4418   -1.6803 H         1 <0>         0.1476
     48 H8          6.9880   -2.6270    0.0287 H         1 <0>         0.1720
     49 H9          2.1987   -0.0766    2.1151 H         1 <0>         0.1413
     50 H10         0.4832   -0.6988    3.7645 H         1 <0>         0.1299
     51 H11         1.6884   -4.7831    3.5041 H         1 <0>         0.1295
     52 H12         3.4019   -4.1824    1.8445 H         1 <0>         0.1409
     53 H13         0.2661   -4.0195    5.3114 H         1 <0>         0.1361
     54 H14        -0.2365   -2.3155    5.4203 H         1 <0>         0.1350
     55 H15        -2.0689   -1.5165    4.1144 H         1 <0>         0.1342
     56 H16        -1.0696   -1.8943    2.6915 H         1 <0>         0.1419
     57 H17        -3.4682   -1.7370    2.0799 H         1 <0>         0.1228
     58 H18        -2.8536   -3.3904    1.8360 H         1 <0>         0.0894
     59 H19        -4.4320   -2.3892    4.2510 H         1 <0>         0.1272
     60 H20        -4.3222   -4.7277    5.0172 H         1 <0>         0.1202
     61 H21        -3.3619   -5.1707    3.5844 H         1 <0>         0.0866
     62 H22        -1.9032   -4.8137    5.5586 H         1 <0>         0.1365
     63 H23        -2.5383   -3.1602    5.7287 H         1 <0>         0.1353
     64 H24        -7.0666   -6.7036    0.6153 H         1 <0>         0.1377
     65 H25        -9.2890   -6.1311   -0.2588 H         1 <0>         0.1494
     66 H26        -9.0249   -2.2454    1.4862 H         1 <0>         0.1469
     67 H27        -1.1482   -4.1982    3.3628 H         1 <0>         0.4218
@<TRIPOS>BOND
     1    1    6 ar
     2    1    2 ar
     3    1   42 1
     4    2    3 ar
     5    2   43 1
     6    3    4 ar
     7    3   44 1
     8    4    5 ar
     9    4    7 1
    10    5    6 ar
    11    5   45 1
    12    6   46 1
    13    7   12 ar
    14    7    8 ar
    15    8    9 ar
    16    8   47 1
    17    9   10 ar
    18    9   37 1
    19   10   11 ar
    20   10   48 1
    21   11   12 ar
    22   12   13 1
    23   13   18 ar
    24   13   14 ar
    25   14   15 ar
    26   14   49 1
    27   15   16 ar
    28   15   50 1
    29   16   17 ar
    30   16   19 1
    31   17   18 ar
    32   17   51 1
    33   18   52 1
    34   19   20 1
    35   19   53 1
    36   19   54 1
    37   20   25 1
    38   20   21 1
    39   20   67 1
    40   21   22 1
    41   21   55 1
    42   21   56 1
    43   22   23 1
    44   22   57 1
    45   22   58 1
    46   23   24 1
    47   23   26 1
    48   23   59 1
    49   24   25 1
    50   24   60 1
    51   24   61 1
    52   25   62 1
    53   25   63 1
    54   26   35 2
    55   26   27 1
    56   27   28 1
    57   27   29 1
    58   29   34 ar
    59   29   30 ar
    60   30   31 ar
    61   30   64 1
    62   31   32 ar
    63   31   65 1
    64   32   33 ar
    65   32   36 1
    66   33   34 ar
    67   33   66 1
    68   34   35 1
    69   37   38 2
    70   37   41 1
    71   38   39 1
    72   39   40 2
    73   40   41 1
@<TRIPOS>MOLECULE
CHEMBL523057
   48    51     0     0     0
SMALL
USER_CHARGES

@<TRIPOS>ATOM
      1 C1         -0.0187    1.5258    0.0104 C.3       1 <0>        -0.1642
      2 C2          0.0021   -0.0041    0.0020 C.3       1 <0>         0.1005
      3 N1          0.7106   -0.4894    1.1889 N.pl3     1 <0>        -0.4477
      4 C3          2.0597   -0.7391    1.2910 C.ar      1 <0>         0.0776
      5 C4          3.1498   -0.6442    0.4246 C.ar      1 <0>         0.0702
      6 C5          4.4056   -0.9911    0.8877 C.ar      1 <0>         0.0315
      7 N2          4.5899   -1.4082    2.1287 N.ar      1 <0>        -0.4555
      8 C6          3.5935   -1.5179    2.9941 C.ar      1 <0>         0.2810
      9 C7          2.2801   -1.1853    2.6069 C.ar      1 <0>         0.0490
     10 N3          1.0891   -1.1881    3.2319 N.2       1 <0>        -0.4270
     11 C8          0.1560   -0.7747    2.4089 C.2       1 <0>         0.3273
     12 C9         -1.2783   -0.6407    2.7451 C.2       1 <0>         0.1354
     13 C10        -1.8884   -0.9361    4.0476 C.2       1 <0>         0.3640
     14 N4         -3.1685   -0.6998    3.9637 N.2       1 <0>        -0.3457
     15 O1         -3.4450   -0.2542    2.6478 O.3       1 <0>         0.0457
     16 N5         -2.2211   -0.2330    1.9347 N.2       1 <0>        -0.2524
     17 N6         -1.2174   -1.3896    5.1757 N.pl3     1 <0>        -0.8004
     18 C11         3.8600   -1.9913    4.3715 C.2       1 <0>        -0.1434
     19 C12         3.1989   -1.5653    5.5531 C.2       1 <0>        -0.1586
     20 C13         3.7424   -2.2410    6.5821 C.2       1 <0>        -0.0162
     21 N7          4.7120   -3.0684    6.0947 N.pl3     1 <0>        -0.5536
     22 H1          5.2599   -3.6676    6.6255 H         1 <0>         0.4206
     23 C14         4.7821   -2.9224    4.7438 C.2       1 <0>         0.0453
     24 O2          2.9794   -0.2176   -0.8555 O.3       1 <0>        -0.3120
     25 C15         4.1464   -0.1491   -1.6773 C.3       1 <0>         0.0593
     26 C16         3.7598    0.3479   -3.0717 C.3       1 <0>        -0.1543
     27 C17         5.0093    0.4213   -3.9516 C.3       1 <0>        -0.0047
     28 N8          4.6381    0.8985   -5.2904 N.4       1 <0>        -0.6359
     29 H2          1.0039    1.9031    0.0027 H         1 <0>         0.0619
     30 H3         -0.5459    1.8868   -0.8726 H         1 <0>         0.0834
     31 H4         -0.5289    1.8773    0.9072 H         1 <0>         0.0648
     32 H5         -1.0205   -0.3814    0.0098 H         1 <0>         0.1074
     33 H6          0.5123   -0.3556   -0.8948 H         1 <0>         0.1000
     34 H7          5.2531   -0.9203    0.2220 H         1 <0>         0.1639
     35 H8         -0.2593   -1.5376    5.1434 H         1 <0>         0.4314
     36 H9         -1.7068   -1.5584    5.9960 H         1 <0>         0.4202
     37 H10         2.4066   -0.8340    5.6150 H         1 <0>         0.1409
     38 H11         3.4591   -2.1444    7.6197 H         1 <0>         0.1688
     39 H12         5.4530   -3.4506    4.0825 H         1 <0>         0.1709
     40 H13         4.8643    0.5398   -1.2322 H         1 <0>         0.0773
     41 H14         4.5941   -1.1398   -1.7559 H         1 <0>         0.0771
     42 H15         3.0419   -0.3409   -3.5169 H         1 <0>         0.0999
     43 H16         3.3121    1.3386   -2.9931 H         1 <0>         0.1002
     44 H17         5.7272    1.1102   -3.5065 H         1 <0>         0.1394
     45 H18         5.4571   -0.5694   -4.0302 H         1 <0>         0.1394
     46 H19         3.9736    0.2608   -5.7025 H         1 <0>         0.4373
     47 H20         4.2237    1.8156   -5.2177 H         1 <0>         0.4374
     48 H21         5.4622    0.9469   -5.8707 H         1 <0>         0.4424
@<TRIPOS>BOND
     1    1    2 1
     2    1   29 1
     3    1   30 1
     4    1   31 1
     5    2    3 1
     6    2   32 1
     7    2   33 1
     8    3   11 1
     9    3    4 1
    10    4    9 ar
    11    4    5 ar
    12    5    6 ar
    13    5   24 1
    14    6    7 ar
    15    6   34 1
    16    7    8 ar
    17    8    9 ar
    18    8   18 1
    19    9   10 1
    20   10   11 2
    21   11   12 1
    22   12   16 2
    23   12   13 1
    24   13   14 2
    25   13   17 1
    26   14   15 1
    27   15   16 1
    28   17   35 1
    29   17   36 1
    30   18   23 2
    31   18   19 1
    32   19   20 2
    33   19   37 1
    34   20   21 1
    35   20   38 1
    36   21   22 1
    37   21   23 1
    38   23   39 1
    39   24   25 1
    40   25   26 1
    41   25   40 1
    42   25   41 1
    43   26   27 1
    44   26   42 1
    45   26   43 1
    46   27   28 1
    47   27   44 1
    48   27   45 1
    49   28   46 1
    50   28   47 1
    51   28   48 1
@<TRIPOS>MOLECULE
CHEMBL516429
   50    54     0     0     0
SMALL
USER_CHARGES

@<TRIPOS>ATOM
      1 C1         -0.0165    1.3620    0.0095 C.ar      1 <0>        -0.1188
      2 C2          1.1697    2.0834    0.0021 C.ar      1 <0>        -0.0930
      3 C3          2.3856    1.4362   -0.0134 C.ar      1 <0>        -0.1108
      4 C4          2.4281    0.0456   -0.0212 C.ar      1 <0>         0.0986
      5 C5          1.2234   -0.6807   -0.0132 C.ar      1 <0>        -0.1171
      6 C6          0.0021   -0.0041    0.0020 C.ar      1 <0>        -0.1143
      7 C7          1.6036   -2.0953   -0.0245 C.2       1 <0>        -0.2383
      8 C8          2.9451   -2.1410   -0.0380 C.2       1 <0>         0.1044
      9 N1          3.4551   -0.8713   -0.0363 N.pl3     1 <0>        -0.5842
     10 H1          4.3995   -0.6501   -0.0442 H         1 <0>         0.4266
     11 C9          0.6664   -3.2754   -0.0210 C.3       1 <0>        -0.0552
     12 C10         0.2361   -3.5891   -1.4554 C.3       1 <0>         0.0433
     13 H2          1.1200   -3.7379   -2.0756 H         1 <0>         0.1535
     14 C11        -0.6144   -4.8610   -1.4661 C.3       1 <0>         0.0252
     15 O1         -0.9189   -5.2190   -2.8156 O.3       1 <0>        -0.3206
     16 C12        -1.6731   -6.3341   -3.0030 C.ar      1 <0>         0.0722
     17 C13        -2.0061   -6.7500   -4.2855 C.ar      1 <0>        -0.0858
     18 C14        -2.7837   -7.9038   -4.4261 C.ar      1 <0>        -0.0123
     19 C15        -3.1916   -8.5872   -3.2797 C.ar      1 <0>         0.1046
     20 N2         -2.8517   -8.1553   -2.0832 N.ar      1 <0>        -0.4352
     21 C16        -2.1151   -7.0742   -1.9150 C.ar      1 <0>         0.0313
     22 C17        -3.1680   -8.3918   -5.7684 C.2       1 <0>        -0.0936
     23 C18        -3.9153   -9.4785   -6.0911 C.2       1 <0>        -0.1170
     24 C19        -4.1718   -9.7762   -7.4398 C.ar      1 <0>        -0.0498
     25 C20        -4.9177  -10.8473   -7.9986 C.ar      1 <0>        -0.1208
     26 C21        -5.0401  -10.9468   -9.3486 C.ar      1 <0>         0.0870
     27 N3         -4.4869  -10.0780  -10.1791 N.ar      1 <0>        -0.4529
     28 C22        -3.7787   -9.0561   -9.7315 C.ar      1 <0>         0.1601
     29 C23        -3.6053   -8.8801   -8.3799 C.ar      1 <0>        -0.1770
     30 S1         -2.7700   -7.6925   -7.3615 S.3       1 <0>         0.0906
     31 N4         -0.5518   -2.4687   -1.9863 N.4       1 <0>        -0.6365
     32 H3         -0.9613    1.8849    0.0259 H         1 <0>         0.1313
     33 H4          1.1388    3.1630    0.0081 H         1 <0>         0.1354
     34 H5          3.3028    2.0064   -0.0198 H         1 <0>         0.1295
     35 H6         -0.9246   -0.5587    0.0082 H         1 <0>         0.1148
     36 H7          3.5346   -3.0459   -0.0490 H         1 <0>         0.1792
     37 H8          1.1742   -4.1414    0.4036 H         1 <0>         0.1219
     38 H9         -0.2127   -3.0396    0.5787 H         1 <0>         0.1000
     39 H10        -0.0618   -5.6715   -0.9910 H         1 <0>         0.1152
     40 H11        -1.5405   -4.6834   -0.9195 H         1 <0>         0.0933
     41 H12        -1.6737   -6.1968   -5.1514 H         1 <0>         0.1491
     42 H13        -3.7928   -9.4794   -3.3749 H         1 <0>         0.1702
     43 H14        -1.8553   -6.7578   -0.9156 H         1 <0>         0.1628
     44 H15        -4.3115  -10.1132   -5.3123 H         1 <0>         0.1471
     45 H16        -5.3846  -11.5783   -7.3552 H         1 <0>         0.1443
     46 H17        -5.6104  -11.7669   -9.7592 H         1 <0>         0.1649
     47 H18        -3.3360   -8.3595  -10.4281 H         1 <0>         0.1686
     48 H19        -1.3700   -2.3311   -1.4122 H         1 <0>         0.4300
     49 H20         0.0090   -1.6300   -1.9793 H         1 <0>         0.4386
     50 H21        -0.8356   -2.6756   -2.9322 H         1 <0>         0.4393
@<TRIPOS>BOND
     1    1    6 ar
     2    1    2 ar
     3    1   32 1
     4    2    3 ar
     5    2   33 1
     6    3    4 ar
     7    3   34 1
     8    4    9 1
     9    4    5 ar
    10    5    6 ar
    11    5    7 1
    12    6   35 1
    13    7    8 2
    14    7   11 1
    15    8    9 1
    16    8   36 1
    17    9   10 1
    18   11   12 1
    19   11   37 1
    20   11   38 1
    21   12   13 1
    22   12   14 1
    23   12   31 1
    24   14   15 1
    25   14   39 1
    26   14   40 1
    27   15   16 1
    28   16   21 ar
    29   16   17 ar
    30   17   18 ar
    31   17   41 1
    32   18   19 ar
    33   18   22 1
    34   19   20 ar
    35   19   42 1
    36   20   21 ar
    37   21   43 1
    38   22   30 1
    39   22   23 2
    40   23   24 1
    41   23   44 1
    42   24   29 ar
    43   24   25 ar
    44   25   26 ar
    45   25   45 1
    46   26   27 ar
    47   26   46 1
    48   27   28 ar
    49   28   29 ar
    50   28   47 1
    51   29   30 1
    52   31   48 1
    53   31   49 1
    54   31   50 1
@<TRIPOS>MOLECULE
CHEMBL381328
   53    56     0     0     0
SMALL
USER_CHARGES

@<TRIPOS>ATOM
      1 C1         -0.0164    1.3567    0.0095 C.ar      1 <0>        -0.1027
      2 C2          1.1686    2.0905    0.0021 C.ar      1 <0>        -0.0990
      3 C3          2.3785    1.4675   -0.0131 C.ar      1 <0>        -0.1162
      4 C4          2.4375    0.0634   -0.0211 C.ar      1 <0>        -0.0505
      5 C5          3.6681   -0.6153   -0.0364 C.ar      1 <0>        -0.1197
      6 C6          3.6865   -1.9761   -0.0434 C.ar      1 <0>        -0.1163
      7 C7          2.5015   -2.7098   -0.0357 C.ar      1 <0>        -0.1209
      8 C8          1.2917   -2.0868   -0.0209 C.ar      1 <0>        -0.0786
      9 C9          1.2327   -0.6827   -0.0133 C.ar      1 <0>        -0.0473
     10 C10         0.0021   -0.0041    0.0020 C.ar      1 <0>        -0.1051
     11 C11         5.0079   -2.7004   -0.0602 C.3       1 <0>        -0.0990
     12 C12         5.4695   -2.9528    1.3765 C.3       1 <0>         0.0434
     13 H1          4.6891   -3.4848    1.9207 H         1 <0>         0.1564
     14 C13         6.7461   -3.7959    1.3614 C.3       1 <0>         0.0273
     15 O1          7.1124   -4.1297    2.7017 O.3       1 <0>        -0.3224
     16 C14         8.2327   -4.8817    2.8661 C.ar      1 <0>         0.0668
     17 C15         8.6500   -5.2514    4.1376 C.ar      1 <0>        -0.0902
     18 C16         9.8106   -6.0265    4.2545 C.ar      1 <0>        -0.0567
     19 C17        10.4972   -6.3940    3.0940 C.ar      1 <0>         0.0860
     20 N1         10.0624   -6.0187    1.9095 N.ar      1 <0>        -0.4397
     21 C18         8.9699   -5.2940    1.7643 C.ar      1 <0>         0.0228
     22 C19        10.3001   -6.4472    5.5796 C.2       1 <0>        -0.1120
     23 C20        11.4140   -7.1902    5.6789 C.2       1 <0>        -0.0785
     24 C21        11.9034   -7.6108    7.0036 C.ar      1 <0>        -0.0257
     25 C22        11.2184   -7.2513    8.1725 C.ar      1 <0>        -0.1655
     26 C23        11.7125   -7.6669    9.3907 C.ar      1 <0>         0.1035
     27 N2         12.8128   -8.3917    9.4646 N.ar      1 <0>        -0.4807
     28 C24        13.4886   -8.7522    8.3900 C.ar      1 <0>         0.1045
     29 C25        13.0640   -8.3866    7.1303 C.ar      1 <0>        -0.1564
     30 N3          5.7386   -1.6686    2.0371 N.4       1 <0>        -0.6373
     31 H2         -0.9633    1.8757    0.0259 H         1 <0>         0.1323
     32 H3          1.1260    3.1696    0.0083 H         1 <0>         0.1313
     33 H4          3.2884    2.0491   -0.0194 H         1 <0>         0.1304
     34 H5          4.5943   -0.0599   -0.0428 H         1 <0>         0.1263
     35 H6          2.5441   -3.7890   -0.0419 H         1 <0>         0.1306
     36 H7          0.3816   -2.6684   -0.0154 H         1 <0>         0.1365
     37 H8         -0.9241   -0.5595    0.0082 H         1 <0>         0.1347
     38 H9          4.8935   -3.6529   -0.5777 H         1 <0>         0.1270
     39 H10         5.7491   -2.0921   -0.5784 H         1 <0>         0.1042
     40 H11         6.5710   -4.7101    0.7942 H         1 <0>         0.1147
     41 H12         7.5512   -3.2278    0.8954 H         1 <0>         0.0929
     42 H13         8.0947   -4.9491    5.0131 H         1 <0>         0.1488
     43 H14        11.3936   -6.9916    3.1698 H         1 <0>         0.1672
     44 H15         8.6464   -5.0129    0.7729 H         1 <0>         0.1579
     45 H16         9.7627   -6.1578    6.4706 H         1 <0>         0.1331
     46 H17        11.9514   -7.4795    4.7879 H         1 <0>         0.1325
     47 H18        10.3176   -6.6577    8.1197 H         1 <0>         0.1365
     48 H19        11.1920   -7.3952   10.2972 H         1 <0>         0.1595
     49 H20        14.3845   -9.3456    8.4985 H         1 <0>         0.1614
     50 H21        13.6194   -8.6894    6.2549 H         1 <0>         0.1407
     51 H22         6.4610   -1.1761    1.5333 H         1 <0>         0.4322
     52 H23         4.8967   -1.1125    2.0471 H         1 <0>         0.4366
     53 H24         6.0430   -1.8350    2.9845 H         1 <0>         0.4423
@<TRIPOS>BOND
     1    1   10 ar
     2    1    2 ar
     3    1   31 1
     4    2    3 ar
     5    2   32 1
     6    3    4 ar
     7    3   33 1
     8    4    9 ar
     9    4    5 ar
    10    5    6 ar
    11    5   34 1
    12    6    7 ar
    13    6   11 1
    14    7    8 ar
    15    7   35 1
    16    8    9 ar
    17    8   36 1
    18    9   10 ar
    19   10   37 1
    20   11   12 1
    21   11   38 1
    22   11   39 1
    23   12   13 1
    24   12   14 1
    25   12   30 1
    26   14   15 1
    27   14   40 1
    28   14   41 1
    29   15   16 1
    30   16   21 ar
    31   16   17 ar
    32   17   18 ar
    33   17   42 1
    34   18   19 ar
    35   18   22 1
    36   19   20 ar
    37   19   43 1
    38   20   21 ar
    39   21   44 1
    40   22   23 2
    41   22   45 1
    42   23   24 1
    43   23   46 1
    44   24   29 ar
    45   24   25 ar
    46   25   26 ar
    47   25   47 1
    48   26   27 ar
    49   26   48 1
    50   27   28 ar
    51   28   29 ar
    52   28   49 1
    53   29   50 1
    54   30   51 1
    55   30   52 1
    56   30   53 1
@<TRIPOS>MOLECULE
CHEMBL493250
   50    53     0     0     0
SMALL
USER_CHARGES

@<TRIPOS>ATOM
      1 C1         -0.0187    1.5258    0.0104 C.3       1 <0>        -0.1646
      2 C2          0.0021   -0.0041    0.0020 C.3       1 <0>         0.0995
      3 N1          0.7106   -0.4894    1.1889 N.pl3     1 <0>        -0.4461
      4 C3          2.0598   -0.7391    1.2910 C.ar      1 <0>         0.0747
      5 C4          3.1497   -0.6445    0.4252 C.ar      1 <0>         0.0843
      6 C5          4.4064   -0.9925    0.8895 C.ar      1 <0>         0.0273
      7 N2          4.5895   -1.4100    2.1292 N.ar      1 <0>        -0.4410
      8 C6          3.5928   -1.5194    2.9942 C.ar      1 <0>         0.2339
      9 C7          2.2800   -1.1860    2.6072 C.ar      1 <0>         0.0525
     10 N3          1.0889   -1.1888    3.2316 N.2       1 <0>        -0.4369
     11 C8          0.1562   -0.7746    2.4084 C.2       1 <0>         0.3377
     12 C9         -1.2782   -0.6400    2.7445 C.2       1 <0>         0.1319
     13 C10        -1.8885   -0.9354    4.0469 C.2       1 <0>         0.3640
     14 N4         -3.1686   -0.6985    3.9629 N.2       1 <0>        -0.3431
     15 O1         -3.4447   -0.2526    2.6471 O.3       1 <0>         0.0486
     16 N5         -2.2207   -0.2318    1.9341 N.2       1 <0>        -0.2495
     17 N6         -1.2179   -1.3897    5.1749 N.pl3     1 <0>        -0.8007
     18 C11         3.8590   -1.9935    4.3718 C.ar      1 <0>        -0.0566
     19 C12         3.1261   -1.4814    5.4424 C.ar      1 <0>        -0.0796
     20 C13         3.3784   -1.9274    6.7235 C.ar      1 <0>        -0.1250
     21 C14         4.3559   -2.8804    6.9473 C.ar      1 <0>        -0.0992
     22 C15         5.0865   -3.3918    5.8896 C.ar      1 <0>        -0.1261
     23 C16         4.8396   -2.9580    4.6032 C.ar      1 <0>        -0.0755
     24 O2          2.9801   -0.2177   -0.8544 O.3       1 <0>        -0.3100
     25 C17         4.1475   -0.1495   -1.6756 C.3       1 <0>         0.0581
     26 C18         3.7617    0.3481   -3.0701 C.3       1 <0>        -0.1544
     27 C19         5.0116    0.4211   -3.9494 C.3       1 <0>        -0.0047
     28 N7          4.6412    0.8988   -5.2883 N.4       1 <0>        -0.6359
     29 H1          1.0039    1.9031    0.0027 H         1 <0>         0.0621
     30 H2         -0.5459    1.8868   -0.8726 H         1 <0>         0.0849
     31 H3         -0.5289    1.8773    0.9072 H         1 <0>         0.0653
     32 H4         -1.0205   -0.3814    0.0098 H         1 <0>         0.1088
     33 H5          0.5123   -0.3556   -0.8948 H         1 <0>         0.1012
     34 H6          5.2545   -0.9216    0.2245 H         1 <0>         0.1675
     35 H7         -0.2599   -1.5383    5.1425 H         1 <0>         0.4301
     36 H8         -1.7074   -1.5583    5.9951 H         1 <0>         0.4212
     37 H9          2.3630   -0.7371    5.2690 H         1 <0>         0.1284
     38 H10         2.8118   -1.5314    7.5534 H         1 <0>         0.1284
     39 H11         4.5498   -3.2264    7.9519 H         1 <0>         0.1265
     40 H12         5.8486   -4.1354    6.0706 H         1 <0>         0.1278
     41 H13         5.4072   -3.3615    3.7778 H         1 <0>         0.1283
     42 H14         4.8655    0.5390   -1.2300 H         1 <0>         0.0788
     43 H15         4.5948   -1.1403   -1.7543 H         1 <0>         0.0788
     44 H16         3.0437   -0.3404   -3.5157 H         1 <0>         0.1005
     45 H17         3.3144    1.3389   -2.9915 H         1 <0>         0.1007
     46 H18         5.7296    1.1096   -3.5038 H         1 <0>         0.1396
     47 H19         5.4589   -0.5698   -4.0281 H         1 <0>         0.1397
     48 H20         5.4655    0.9470   -5.8682 H         1 <0>         0.4428
     49 H21         3.9765    0.2615   -5.7008 H         1 <0>         0.4375
     50 H22         4.2271    1.8160   -5.2155 H         1 <0>         0.4374
@<TRIPOS>BOND
     1    1    2 1
     2    1   29 1
     3    1   30 1
     4    1   31 1
     5    2    3 1
     6    2   32 1
     7    2   33 1
     8    3   11 1
     9    3    4 1
    10    4    9 ar
    11    4    5 ar
    12    5    6 ar
    13    5   24 1
    14    6    7 ar
    15    6   34 1
    16    7    8 ar
    17    8    9 ar
    18    8   18 1
    19    9   10 1
    20   10   11 2
    21   11   12 1
    22   12   16 2
    23   12   13 1
    24   13   14 2
    25   13   17 1
    26   14   15 1
    27   15   16 1
    28   17   35 1
    29   17   36 1
    30   18   23 ar
    31   18   19 ar
    32   19   20 ar
    33   19   37 1
    34   20   21 ar
    35   20   38 1
    36   21   22 ar
    37   21   39 1
    38   22   23 ar
    39   22   40 1
    40   23   41 1
    41   24   25 1
    42   25   26 1
    43   25   42 1
    44   25   43 1
    45   26   27 1
    46   26   44 1
    47   26   45 1
    48   27   28 1
    49   27   46 1
    50   27   47 1
    51   28   48 1
    52   28   49 1
    53   28   50 1
@<TRIPOS>MOLECULE
CHEMBL205871
   53    56     0     0     0
SMALL
USER_CHARGES

@<TRIPOS>ATOM
      1 C1         -0.0164    1.3567    0.0095 C.ar      1 <0>        -0.1228
      2 C2          1.1685    2.0906    0.0021 C.ar      1 <0>        -0.0745
      3 C3          2.3785    1.4679   -0.0132 C.ar      1 <0>        -0.1835
      4 C4          2.4378    0.0637   -0.0214 C.ar      1 <0>        -0.0501
      5 C5          1.2328   -0.6827   -0.0134 C.ar      1 <0>        -0.0541
      6 C6          0.0021   -0.0041    0.0020 C.ar      1 <0>        -0.0746
      7 C7          1.2920   -2.0865   -0.0210 C.ar      1 <0>        -0.0773
      8 C8          2.5022   -2.7094   -0.0359 C.ar      1 <0>        -0.1196
      9 C9          3.6867   -1.9757   -0.0433 C.ar      1 <0>        -0.0706
     10 C10         3.6681   -0.6146   -0.0367 C.ar      1 <0>        -0.1349
     11 C11         4.9603    0.1606   -0.0459 C.3       1 <0>        -0.0959
     12 C12         5.3473    0.5240    1.3890 C.3       1 <0>         0.0434
     13 H1          5.3878   -0.3812    1.9948 H         1 <0>         0.1564
     14 C13         6.7193    1.2011    1.3914 C.3       1 <0>         0.0272
     15 O1          7.1326    1.4354    2.7391 O.3       1 <0>        -0.3218
     16 C14         8.3391    2.0348    2.9193 C.ar      1 <0>         0.0669
     17 C15         8.8122    2.2906    4.1992 C.ar      1 <0>        -0.0902
     18 C16        10.0610    2.9102    4.3322 C.ar      1 <0>        -0.0567
     19 C17        10.7759    3.2438    3.1786 C.ar      1 <0>         0.0858
     20 N1         10.2854    2.9813    1.9855 N.ar      1 <0>        -0.4396
     21 C18         9.1155    2.3934    1.8255 C.ar      1 <0>         0.0226
     22 C19        10.6121    3.2060    5.6669 C.2       1 <0>        -0.1118
     23 C20        11.8106    3.8004    5.7817 C.2       1 <0>        -0.0787
     24 C21        12.3615    4.0962    7.1159 C.ar      1 <0>        -0.0256
     25 C22        11.6540    3.7604    8.2785 C.ar      1 <0>        -0.1655
     26 C23        12.2077    4.0560    9.5060 C.ar      1 <0>         0.1035
     27 N2         13.3848    4.6461    9.5946 N.ar      1 <0>        -0.4807
     28 C24        14.0844    4.9794    8.5264 C.ar      1 <0>         0.1045
     29 C25        13.6106    4.7160    7.2587 C.ar      1 <0>        -0.1564
     30 N3          4.3468    1.4429    1.9482 N.4       1 <0>        -0.6394
     31 H2         -0.9634    1.8756    0.0259 H         1 <0>         0.1352
     32 H3          1.1258    3.1698    0.0084 H         1 <0>         0.1335
     33 H4          3.2883    2.0497   -0.0195 H         1 <0>         0.1157
     34 H5         -0.9241   -0.5595    0.0082 H         1 <0>         0.1387
     35 H6          0.3820   -2.6682   -0.0147 H         1 <0>         0.1384
     36 H7          2.5450   -3.7886   -0.0417 H         1 <0>         0.1358
     37 H8          4.6338   -2.4947   -0.0548 H         1 <0>         0.1335
     38 H9          5.7467   -0.4491   -0.4909 H         1 <0>         0.1274
     39 H10         4.8331    1.0722   -0.6299 H         1 <0>         0.1043
     40 H11         7.4441    0.5551    0.8962 H         1 <0>         0.1153
     41 H12         6.6566    2.1509    0.8603 H         1 <0>         0.0924
     42 H13         8.2324    2.0193    5.0690 H         1 <0>         0.1489
     43 H14        11.7403    3.7220    3.2668 H         1 <0>         0.1672
     44 H15         8.7538    2.1920    0.8280 H         1 <0>         0.1579
     45 H16        10.0519    2.9447    6.5525 H         1 <0>         0.1330
     46 H17        12.3708    4.0617    4.8960 H         1 <0>         0.1324
     47 H18        10.6899    3.2780    8.2136 H         1 <0>         0.1365
     48 H19        11.6706    3.8013   10.4076 H         1 <0>         0.1594
     49 H20        15.0434    5.4613    8.6470 H         1 <0>         0.1614
     50 H21        14.1909    4.9871    6.3891 H         1 <0>         0.1407
     51 H22         3.4420    0.9964    1.9466 H         1 <0>         0.4380
     52 H23         4.6019    1.6826    2.8945 H         1 <0>         0.4390
     53 H24         4.3092    2.2810    1.3875 H         1 <0>         0.4293
@<TRIPOS>BOND
     1    1    6 ar
     2    1    2 ar
     3    1   31 1
     4    2    3 ar
     5    2   32 1
     6    3    4 ar
     7    3   33 1
     8    4   10 ar
     9    4    5 ar
    10    5    6 ar
    11    5    7 ar
    12    6   34 1
    13    7    8 ar
    14    7   35 1
    15    8    9 ar
    16    8   36 1
    17    9   10 ar
    18    9   37 1
    19   10   11 1
    20   11   12 1
    21   11   38 1
    22   11   39 1
    23   12   13 1
    24   12   14 1
    25   12   30 1
    26   14   15 1
    27   14   40 1
    28   14   41 1
    29   15   16 1
    30   16   21 ar
    31   16   17 ar
    32   17   18 ar
    33   17   42 1
    34   18   19 ar
    35   18   22 1
    36   19   20 ar
    37   19   43 1
    38   20   21 ar
    39   21   44 1
    40   22   23 2
    41   22   45 1
    42   23   24 1
    43   23   46 1
    44   24   29 ar
    45   24   25 ar
    46   25   26 ar
    47   25   47 1
    48   26   27 ar
    49   26   48 1
    50   27   28 ar
    51   28   29 ar
    52   28   49 1
    53   29   50 1
    54   30   51 1
    55   30   52 1
    56   30   53 1
@<TRIPOS>MOLECULE
CHEMBL1173384
   39    41     0     0     0
SMALL
USER_CHARGES

@<TRIPOS>ATOM
      1 C1         -3.1727    0.2115    3.0027 C.3       1 <0>        -0.0746
      2 C2         -2.5830   -1.0619    2.4534 C.2       1 <0>        -0.1498
      3 C3         -3.2568   -2.1673    2.0959 C.2       1 <0>         0.0704
      4 N1         -2.3807   -3.1190    1.6417 N.pl3     1 <0>        -0.5673
      5 H1         -2.6320   -4.0014    1.3271 H         1 <0>         0.4299
      6 C4         -1.1003   -2.6411    1.6968 C.ar      1 <0>         0.3266
      7 C5         -1.1682   -1.3293    2.2015 C.ar      1 <0>        -0.1957
      8 C6          0.0231   -0.6039    2.3531 C.ar      1 <0>         0.4762
      9 N2          1.1665   -1.1893    2.0087 N.ar      1 <0>        -0.5483
     10 C7          1.1846   -2.4223    1.5355 C.ar      1 <0>         0.3310
     11 N3          0.0938   -3.1420    1.3845 N.ar      1 <0>        -0.5206
     12 N4          0.0088    0.6877    2.8479 N.pl3     1 <0>        -0.6624
     13 C8         -0.2221    1.9090    2.0551 C.3       1 <0>         0.1194
     14 C9         -0.7506    2.9493    3.0740 C.3       1 <0>        -0.1397
     15 C10         0.0878    2.6053    4.3335 C.3       1 <0>         0.0304
     16 C11         0.2150    1.0695    4.2526 C.3       1 <0>         0.1312
     17 C12        -0.6539    3.0175    5.6066 C.3       1 <0>         0.1076
     18 N5         -0.8700    4.4664    5.5985 N.am      1 <0>        -0.7597
     19 C13        -1.5087    5.0583    6.6272 C.2       1 <0>         0.4977
     20 O1         -1.9046    4.3914    7.5597 O.2       1 <0>        -0.5239
     21 N6          1.4085    3.2453    4.2694 N.4       1 <0>        -0.6271
     22 H2         -3.3278    0.9205    2.1893 H         1 <0>         0.0649
     23 H3         -4.1274   -0.0070    3.4812 H         1 <0>         0.0698
     24 H4         -2.4895    0.6422    3.7347 H         1 <0>         0.0600
     25 H5         -4.3283   -2.2883    2.1570 H         1 <0>         0.1874
     26 H6          2.1349   -2.8602    1.2678 H         1 <0>         0.2063
     27 H7          0.7109    2.2543    1.6097 H         1 <0>         0.0653
     28 H8         -0.9671    1.7237    1.2812 H         1 <0>         0.0923
     29 H9         -0.5482    3.9654    2.7355 H         1 <0>         0.1089
     30 H10        -1.8147    2.8064    3.2620 H         1 <0>         0.1272
     31 H11        -0.5426    0.5994    4.8796 H         1 <0>         0.1027
     32 H12         1.2097    0.7643    4.5775 H         1 <0>         0.0826
     33 H13        -1.6160    2.5069    5.6481 H         1 <0>         0.1171
     34 H14        -0.0594    2.7437    6.4782 H         1 <0>         0.0988
     35 H15        -0.5535    4.9998    4.8527 H         1 <0>         0.3986
     36 H16        -1.6680    6.1265    6.6212 H         1 <0>         0.1523
     37 H17         1.2956    4.2475    4.2411 H         1 <0>         0.4325
     38 H18         1.9457    2.9902    5.0846 H         1 <0>         0.4404
     39 H19         1.8914    2.9376    3.4386 H         1 <0>         0.4416
@<TRIPOS>BOND
     1    1    2 1
     2    1   22 1
     3    1   23 1
     4    1   24 1
     5    2    7 1
     6    2    3 2
     7    3    4 1
     8    3   25 1
     9    4    5 1
    10    4    6 1
    11    6   11 ar
    12    6    7 ar
    13    7    8 ar
    14    8    9 ar
    15    8   12 1
    16    9   10 ar
    17   10   11 ar
    18   10   26 1
    19   12   16 1
    20   12   13 1
    21   13   14 1
    22   13   27 1
    23   13   28 1
    24   14   15 1
    25   14   29 1
    26   14   30 1
    27   15   16 1
    28   15   17 1
    29   15   21 1
    30   16   31 1
    31   16   32 1
    32   17   18 1
    33   17   33 1
    34   17   34 1
    35   18   19 am
    36   18   35 1
    37   19   20 2
    38   19   36 1
    39   21   37 1
    40   21   38 1
    41   21   39 1
@<TRIPOS>MOLECULE
CHEMBL1173384
   39    41     0     0     0
SMALL
USER_CHARGES

@<TRIPOS>ATOM
      1 C1         -3.1727    0.2114    3.0031 C.3       1 <0>        -0.0707
      2 C2         -2.5830   -1.0620    2.4538 C.2       1 <0>        -0.1551
      3 C3         -3.2568   -2.1674    2.0964 C.2       1 <0>         0.0717
      4 N1         -2.3807   -3.1191    1.6421 N.pl3     1 <0>        -0.5679
      5 H1         -2.6320   -4.0016    1.3275 H         1 <0>         0.4299
      6 C4         -1.1002   -2.6412    1.6970 C.ar      1 <0>         0.3267
      7 C5         -1.1682   -1.3293    2.2017 C.ar      1 <0>        -0.1965
      8 C6          0.0231   -0.6039    2.3531 C.ar      1 <0>         0.4778
      9 N2          1.1665   -1.1893    2.0085 N.ar      1 <0>        -0.5428
     10 C7          1.1846   -2.4222    1.5353 C.ar      1 <0>         0.3336
     11 N3          0.0938   -3.1420    1.3845 N.ar      1 <0>        -0.5217
     12 N4          0.0088    0.6877    2.8479 N.pl3     1 <0>        -0.6564
     13 C8         -0.2221    1.9090    2.0551 C.3       1 <0>         0.1361
     14 C9         -0.7506    2.9493    3.0740 C.3       1 <0>        -0.1437
     15 C10         0.0878    2.6053    4.3335 C.3       1 <0>         0.0311
     16 C11         0.2150    1.0695    4.2526 C.3       1 <0>         0.1333
     17 C12         1.4633    3.2718    4.2668 C.3       1 <0>         0.1072
     18 N5          1.3056    4.7262    4.3460 N.am      1 <0>        -0.7618
     19 C13         2.3906    5.5248    4.3061 C.2       1 <0>         0.4971
     20 O1          3.4974    5.0395    4.2046 O.2       1 <0>        -0.5211
     21 N6         -0.6244    3.0010    5.5559 N.4       1 <0>        -0.6272
     22 H2         -3.3279    0.9203    2.1898 H         1 <0>         0.0661
     23 H3         -4.1273   -0.0072    3.4817 H         1 <0>         0.0690
     24 H4         -2.4894    0.6420    3.7351 H         1 <0>         0.0524
     25 H5         -4.3282   -2.2885    2.1577 H         1 <0>         0.1864
     26 H6          2.1349   -2.8601    1.2675 H         1 <0>         0.2073
     27 H7          0.7109    2.2543    1.6097 H         1 <0>         0.0741
     28 H8         -0.9671    1.7237    1.2812 H         1 <0>         0.0892
     29 H9         -0.5482    3.9654    2.7355 H         1 <0>         0.1145
     30 H10        -1.8147    2.8064    3.2620 H         1 <0>         0.1063
     31 H11        -0.5426    0.5994    4.8796 H         1 <0>         0.0789
     32 H12         1.2097    0.7643    4.5775 H         1 <0>         0.0926
     33 H13         2.0751    2.9268    5.1003 H         1 <0>         0.1002
     34 H14         1.9489    3.0097    3.3268 H         1 <0>         0.1191
     35 H15         0.4204    5.1143    4.4271 H         1 <0>         0.3961
     36 H16         2.2743    6.5969    4.3645 H         1 <0>         0.1525
     37 H17        -1.5150    2.5284    5.5942 H         1 <0>         0.4399
     38 H18        -0.0741    2.7476    6.3627 H         1 <0>         0.4410
     39 H19        -0.7732    3.9990    5.5503 H         1 <0>         0.4346
@<TRIPOS>BOND
     1    1    2 1
     2    1   22 1
     3    1   23 1
     4    1   24 1
     5    2    7 1
     6    2    3 2
     7    3    4 1
     8    3   25 1
     9    4    5 1
    10    4    6 1
    11    6   11 ar
    12    6    7 ar
    13    7    8 ar
    14    8    9 ar
    15    8   12 1
    16    9   10 ar
    17   10   11 ar
    18   10   26 1
    19   12   16 1
    20   12   13 1
    21   13   14 1
    22   13   27 1
    23   13   28 1
    24   14   15 1
    25   14   29 1
    26   14   30 1
    27   15   16 1
    28   15   17 1
    29   15   21 1
    30   16   31 1
    31   16   32 1
    32   17   18 1
    33   17   33 1
    34   17   34 1
    35   18   19 am
    36   18   35 1
    37   19   20 2
    38   19   36 1
    39   21   37 1
    40   21   38 1
    41   21   39 1
@<TRIPOS>MOLECULE
CHEMBL1171840
   50    53     0     0     0
SMALL
USER_CHARGES

@<TRIPOS>ATOM
      1 C1         -3.4189    0.4784    2.6795 C.3       1 <0>        -0.0749
      2 C2         -2.8946   -0.8146    2.1100 C.2       1 <0>        -0.1496
      3 C3         -3.6269   -1.8519    1.6723 C.2       1 <0>         0.0705
      4 N1         -2.7991   -2.8494    1.2259 N.pl3     1 <0>        -0.5673
      5 H1         -3.0966   -3.6981    0.8625 H         1 <0>         0.4298
      6 C4         -1.4921   -2.4720    1.3679 C.ar      1 <0>         0.3266
      7 C5         -1.4915   -1.1785    1.9219 C.ar      1 <0>        -0.1954
      8 C6         -0.2604   -0.5512    2.1657 C.ar      1 <0>         0.4762
      9 N2          0.8543   -1.2081    1.8579 N.ar      1 <0>        -0.5478
     10 C7          0.8081   -2.4205    1.3359 C.ar      1 <0>         0.3310
     11 N3         -0.3225   -3.0497    1.0983 N.ar      1 <0>        -0.5205
     12 N4         -0.2073    0.7185    2.7118 N.pl3     1 <0>        -0.6622
     13 C8         -0.3033    1.9823    1.9590 C.3       1 <0>         0.1199
     14 C9         -0.8099    3.0210    2.9906 C.3       1 <0>        -0.1422
     15 C10        -0.0706    2.5680    4.2773 C.3       1 <0>         0.0301
     16 C11        -0.0522    1.0311    4.1400 C.3       1 <0>         0.1326
     17 C12        -0.8498    2.9875    5.5255 C.3       1 <0>         0.1322
     18 N5         -0.9581    4.4479    5.5657 N.am      1 <0>        -0.7267
     19 C13        -1.6079    5.0477    6.5828 C.2       1 <0>         0.6483
     20 O1         -2.1040    4.3771    7.4664 O.2       1 <0>        -0.5304
     21 O2         -1.7074    6.3903    6.6197 O.3       1 <0>        -0.2985
     22 C14        -2.2625    6.9590    7.7226 C.ar      1 <0>         0.0884
     23 C15        -3.5151    7.5498    7.6438 C.ar      1 <0>        -0.1105
     24 C16        -4.0771    8.1271    8.7660 C.ar      1 <0>        -0.1022
     25 C17        -3.3921    8.1163    9.9671 C.ar      1 <0>        -0.1053
     26 C18        -2.1433    7.5284   10.0481 C.ar      1 <0>        -0.1029
     27 C19        -1.5797    6.9443    8.9301 C.ar      1 <0>        -0.1188
     28 N6          1.2951    3.1082    4.3096 N.4       1 <0>        -0.6281
     29 H2         -3.4757    1.2269    1.8892 H         1 <0>         0.0652
     30 H3         -4.4123    0.3151    3.0974 H         1 <0>         0.0699
     31 H4         -2.7478    0.8285    3.4639 H         1 <0>         0.0599
     32 H5         -4.7061   -1.8939    1.6721 H         1 <0>         0.1873
     33 H6          1.7371   -2.9186    1.1007 H         1 <0>         0.2063
     34 H7          0.6759    2.2724    1.5781 H         1 <0>         0.0666
     35 H8         -1.0156    1.8828    1.1399 H         1 <0>         0.0934
     36 H9         -0.5148    4.0308    2.7055 H         1 <0>         0.1107
     37 H10        -1.8904    2.9521    3.1161 H         1 <0>         0.1289
     38 H11        -0.8761    0.5966    4.7062 H         1 <0>         0.1046
     39 H12         0.8976    0.6397    4.5042 H         1 <0>         0.0853
     40 H13        -1.8476    2.5499    5.4949 H         1 <0>         0.1239
     41 H14        -0.3266    2.6373    6.4152 H         1 <0>         0.1061
     42 H15        -0.5621    4.9832    4.8603 H         1 <0>         0.4047
     43 H16        -4.0504    7.5589    6.7059 H         1 <0>         0.1335
     44 H17        -5.0521    8.5876    8.7051 H         1 <0>         0.1378
     45 H18        -3.8331    8.5681   10.8433 H         1 <0>         0.1348
     46 H19        -1.6101    7.5215   10.9872 H         1 <0>         0.1350
     47 H20        -0.6063    6.4810    8.9950 H         1 <0>         0.1257
     48 H21         1.2579    4.1165    4.3167 H         1 <0>         0.4337
     49 H22         1.7659    2.7832    5.1407 H         1 <0>         0.4411
     50 H23         1.7996    2.7960    3.4934 H         1 <0>         0.4432
@<TRIPOS>BOND
     1    1    2 1
     2    1   29 1
     3    1   30 1
     4    1   31 1
     5    2    7 1
     6    2    3 2
     7    3    4 1
     8    3   32 1
     9    4    5 1
    10    4    6 1
    11    6   11 ar
    12    6    7 ar
    13    7    8 ar
    14    8    9 ar
    15    8   12 1
    16    9   10 ar
    17   10   11 ar
    18   10   33 1
    19   12   16 1
    20   12   13 1
    21   13   14 1
    22   13   34 1
    23   13   35 1
    24   14   15 1
    25   14   36 1
    26   14   37 1
    27   15   16 1
    28   15   17 1
    29   15   28 1
    30   16   38 1
    31   16   39 1
    32   17   18 1
    33   17   40 1
    34   17   41 1
    35   18   19 am
    36   18   42 1
    37   19   20 2
    38   19   21 1
    39   21   22 1
    40   22   27 ar
    41   22   23 ar
    42   23   24 ar
    43   23   43 1
    44   24   25 ar
    45   24   44 1
    46   25   26 ar
    47   25   45 1
    48   26   27 ar
    49   26   46 1
    50   27   47 1
    51   28   48 1
    52   28   49 1
    53   28   50 1
@<TRIPOS>MOLECULE
CHEMBL1171840
   50    53     0     0     0
SMALL
USER_CHARGES

@<TRIPOS>ATOM
      1 C1         -3.0176    0.0629    3.1325 C.3       1 <0>        -0.0710
      2 C2         -2.3825   -1.2397    2.7191 C.2       1 <0>        -0.1548
      3 C3         -3.0223   -2.3764    2.3992 C.2       1 <0>         0.0717
      4 N1         -2.1102   -3.3477    2.0759 N.pl3     1 <0>        -0.5679
      5 H1         -2.3331   -4.2538    1.8108 H         1 <0>         0.4299
      6 C4         -0.8401   -2.8514    2.1817 C.ar      1 <0>         0.3268
      7 C5         -0.9519   -1.5072    2.5830 C.ar      1 <0>        -0.1963
      8 C6          0.2210   -0.7581    2.7607 C.ar      1 <0>         0.4778
      9 N2          1.3895   -1.3528    2.5377 N.ar      1 <0>        -0.5425
     10 C7          1.4488   -2.6166    2.1585 C.ar      1 <0>         0.3336
     11 N3          0.3761   -3.3588    1.9879 N.ar      1 <0>        -0.5215
     12 N4          0.1635    0.5658    3.1573 N.pl3     1 <0>        -0.6565
     13 C8         -0.0216    1.7233    2.2632 C.3       1 <0>         0.1357
     14 C9         -0.6259    2.8284    3.1650 C.3       1 <0>        -0.1456
     15 C10         0.1269    2.5872    4.5001 C.3       1 <0>         0.0310
     16 C11         0.2705    1.0513    4.5409 C.3       1 <0>         0.1345
     17 C12         1.4989    3.2639    4.4778 C.3       1 <0>         0.1315
     18 N5          1.3256    4.7181    4.4393 N.am      1 <0>        -0.7284
     19 C13         2.4049    5.5249    4.4143 C.2       1 <0>         0.6478
     20 O1          3.5217    5.0462    4.4238 O.2       1 <0>        -0.5278
     21 O2          2.2456    6.8618    4.3789 O.3       1 <0>        -0.2992
     22 C14         3.3552    7.6330    4.2310 C.ar      1 <0>         0.0881
     23 C15         3.8144    8.4003    5.2916 C.ar      1 <0>        -0.1115
     24 C16         4.9422    9.1833    5.1388 C.ar      1 <0>        -0.1031
     25 C17         5.6132    9.2026    3.9300 C.ar      1 <0>        -0.1051
     26 C18         5.1573    8.4391    2.8713 C.ar      1 <0>        -0.1021
     27 C19         4.0335    7.6497    3.0210 C.ar      1 <0>        -0.1175
     28 N6         -0.6699    3.0620    5.6392 N.4       1 <0>        -0.6282
     29 H2         -3.1219    0.7090    2.2609 H         1 <0>         0.0664
     30 H3         -4.0011   -0.1320    3.5602 H         1 <0>         0.0691
     31 H4         -2.3891    0.5538    3.8756 H         1 <0>         0.0525
     32 H5         -4.0945   -2.5060    2.3969 H         1 <0>         0.1864
     33 H6          2.4183   -3.0610    1.9882 H         1 <0>         0.2072
     34 H7          0.9372    2.0467    1.8578 H         1 <0>         0.0749
     35 H8         -0.7106    1.4732    1.4564 H         1 <0>         0.0907
     36 H9         -0.4083    3.8196    2.7674 H         1 <0>         0.1154
     37 H10        -1.6993    2.6865    3.2907 H         1 <0>         0.1091
     38 H11        -0.5247    0.6187    5.1480 H         1 <0>         0.0821
     39 H12         1.2428    0.7827    4.9538 H         1 <0>         0.0947
     40 H13         2.0548    2.9878    5.3739 H         1 <0>         0.1077
     41 H14         2.0494    2.9400    3.5945 H         1 <0>         0.1257
     42 H15         0.4341    5.1002    4.4317 H         1 <0>         0.4022
     43 H16         3.2904    8.3859    6.2358 H         1 <0>         0.1322
     44 H17         5.2999    9.7811    5.9640 H         1 <0>         0.1374
     45 H18         6.4948    9.8154    3.8125 H         1 <0>         0.1349
     46 H19         5.6829    8.4561    1.9280 H         1 <0>         0.1355
     47 H20         3.6805    7.0498    2.1952 H         1 <0>         0.1272
     48 H21        -1.5576    2.5825    5.6519 H         1 <0>         0.4415
     49 H22        -0.1742    2.8746    6.4979 H         1 <0>         0.4420
     50 H23        -0.8253    4.0550    5.5504 H         1 <0>         0.4358
@<TRIPOS>BOND
     1    1    2 1
     2    1   29 1
     3    1   30 1
     4    1   31 1
     5    2    7 1
     6    2    3 2
     7    3    4 1
     8    3   32 1
     9    4    5 1
    10    4    6 1
    11    6   11 ar
    12    6    7 ar
    13    7    8 ar
    14    8    9 ar
    15    8   12 1
    16    9   10 ar
    17   10   11 ar
    18   10   33 1
    19   12   16 1
    20   12   13 1
    21   13   14 1
    22   13   34 1
    23   13   35 1
    24   14   15 1
    25   14   36 1
    26   14   37 1
    27   15   16 1
    28   15   17 1
    29   15   28 1
    30   16   38 1
    31   16   39 1
    32   17   18 1
    33   17   40 1
    34   17   41 1
    35   18   19 am
    36   18   42 1
    37   19   20 2
    38   19   21 1
    39   21   22 1
    40   22   27 ar
    41   22   23 ar
    42   23   24 ar
    43   23   43 1
    44   24   25 ar
    45   24   44 1
    46   25   26 ar
    47   25   45 1
    48   26   27 ar
    49   26   46 1
    50   27   47 1
    51   28   48 1
    52   28   49 1
    53   28   50 1
@<TRIPOS>MOLECULE
CHEMBL180058
   77    84     0     0     0
SMALL
USER_CHARGES

@<TRIPOS>ATOM
      1 C1          0.3403    1.5456   -0.2759 C.3       1 <0>         0.0898
      2 N1          0.1550    0.0925   -0.2528 N.pl3     1 <0>        -0.1306
      3 N2          0.3665   -0.7017   -1.2454 N.2       1 <0>        -0.2894
      4 C2          0.0928   -1.9281   -0.8461 C.2       1 <0>         0.1972
      5 N3         -0.2940   -1.8376    0.4345 N.2       1 <0>        -0.2692
      6 N4         -0.2392   -0.5917    0.7638 N.2       1 <0>        -0.0505
      7 C3          0.1933   -3.1673   -1.6563 C.ar      1 <0>         0.0202
      8 C4          0.6230   -3.0935   -2.9911 C.ar      1 <0>        -0.0598
      9 C5          0.7229   -4.2132   -3.7534 C.ar      1 <0>        -0.0798
     10 C6          0.3941   -5.4684   -3.2090 C.ar      1 <0>         0.1013
     11 C7         -0.0410   -5.5546   -1.8605 C.ar      1 <0>         0.0802
     12 C8         -0.1315   -4.3849   -1.0892 C.ar      1 <0>        -0.0349
     13 N5         -0.3548   -6.7449   -1.3363 N.ar      1 <0>        -0.3969
     14 C9         -0.2582   -7.8341   -2.0763 C.ar      1 <0>         0.1358
     15 C10         0.1764   -7.7480   -3.4219 C.ar      1 <0>         0.1668
     16 N6          0.4881   -6.5781   -3.9489 N.ar      1 <0>        -0.4090
     17 C11         0.2814   -8.9769   -4.2421 C.ar      1 <0>        -0.0538
     18 C12        -0.2118   -8.9922   -5.5467 C.ar      1 <0>        -0.0736
     19 C13        -0.1107  -10.1399   -6.3060 C.ar      1 <0>        -0.1172
     20 C14         0.4779  -11.2740   -5.7756 C.ar      1 <0>        -0.0996
     21 C15         0.9689  -11.2650   -4.4822 C.ar      1 <0>        -0.1263
     22 C16         0.8789  -10.1216   -3.7150 C.ar      1 <0>        -0.0896
     23 C17        -0.6055   -9.1524   -1.4966 C.ar      1 <0>        -0.0022
     24 C18        -1.3889  -10.0509   -2.2204 C.ar      1 <0>        -0.0784
     25 C19        -1.7091  -11.2774   -1.6751 C.ar      1 <0>        -0.0961
     26 C20        -1.2550  -11.6162   -0.4130 C.ar      1 <0>        -0.1514
     27 C21        -0.4774  -10.7291    0.3097 C.ar      1 <0>        -0.0910
     28 C22        -0.1455   -9.5022   -0.2274 C.ar      1 <0>        -0.0780
     29 C23        -1.6091  -12.9569    0.1771 C.3       1 <0>         0.0436
     30 N7         -0.5812  -13.9402   -0.1896 N.4       1 <0>        -0.3852
     31 C24        -0.5875  -14.1331   -1.6446 C.3       1 <0>        -0.0076
     32 C25         0.5348  -15.0950   -2.0404 C.3       1 <0>        -0.1649
     33 C26         0.3149  -16.4413   -1.3444 C.3       1 <0>         0.1609
     34 C27         0.2489  -16.2176    0.1691 C.3       1 <0>        -0.1670
     35 C28        -0.8628  -15.2141    0.4830 C.3       1 <0>         0.0011
     36 N8          1.4264  -17.3425   -1.6585 N.am      1 <0>        -0.5372
     37 C29         1.3216  -18.5708   -2.3069 C.ar      1 <0>         0.0797
     38 C30         0.2516  -19.2866   -2.8220 C.ar      1 <0>        -0.1043
     39 C31         0.4694  -20.5103   -3.4241 C.ar      1 <0>        -0.1029
     40 C32         1.7512  -21.0253   -3.5151 C.ar      1 <0>        -0.0991
     41 C33         2.8231  -20.3198   -3.0046 C.ar      1 <0>        -0.1001
     42 C34         2.6145  -19.0900   -2.3991 C.ar      1 <0>         0.0916
     43 N9          3.4647  -18.1611   -1.8039 N.am      1 <0>        -0.6396
     44 C35         2.7239  -17.1219   -1.3748 C.2       1 <0>         0.6857
     45 O1          3.1604  -16.1348   -0.8128 O.2       1 <0>        -0.5576
     46 H1          1.3623    1.7863    0.0167 H         1 <0>         0.1076
     47 H2          0.1529    1.9198   -1.2824 H         1 <0>         0.1156
     48 H3         -0.3564    2.0118    0.4207 H         1 <0>         0.1181
     49 H4          0.8771   -2.1342   -3.4171 H         1 <0>         0.1518
     50 H5          1.0546   -4.1400   -4.7786 H         1 <0>         0.1535
     51 H6         -0.4568   -4.4360   -0.0606 H         1 <0>         0.1579
     52 H7         -0.6721   -8.1077   -5.9615 H         1 <0>         0.1307
     53 H8         -0.4921  -10.1529   -7.3163 H         1 <0>         0.1317
     54 H9          0.5541  -12.1701   -6.3736 H         1 <0>         0.1271
     55 H10         1.4274  -12.1534   -4.0737 H         1 <0>         0.1231
     56 H11         1.2662  -10.1146   -2.7069 H         1 <0>         0.1215
     57 H12        -1.7446   -9.7872   -3.2054 H         1 <0>         0.1385
     58 H13        -2.3158  -11.9740   -2.2346 H         1 <0>         0.1365
     59 H14        -0.1261  -10.9991    1.2947 H         1 <0>         0.1372
     60 H15         0.4653   -8.8123    0.3359 H         1 <0>         0.1406
     61 H16        -1.6616  -12.8736    1.2626 H         1 <0>         0.1402
     62 H17        -2.5756  -13.2802   -0.2097 H         1 <0>         0.1383
     63 H18        -1.5471  -14.5492   -1.9514 H         1 <0>         0.1329
     64 H19        -0.4341  -13.1736   -2.1385 H         1 <0>         0.1397
     65 H20         0.5273  -15.2382   -3.1209 H         1 <0>         0.1172
     66 H21         1.4950  -14.6796   -1.7343 H         1 <0>         0.1072
     67 H22        -0.6210  -16.8811   -1.6890 H         1 <0>         0.1149
     68 H23         0.0370  -17.1634    0.6679 H         1 <0>         0.1179
     69 H24         1.2032  -15.8256    0.5210 H         1 <0>         0.1076
     70 H25        -0.9126  -15.0527    1.5598 H         1 <0>         0.1386
     71 H26        -1.8165  -15.6072    0.1309 H         1 <0>         0.1335
     72 H27        -0.7498  -18.8883   -2.7522 H         1 <0>         0.1289
     73 H28        -0.3639  -21.0680   -3.8254 H         1 <0>         0.1385
     74 H29         1.9136  -21.9831   -3.9871 H         1 <0>         0.1398
     75 H30         3.8216  -20.7251   -3.0768 H         1 <0>         0.1365
     76 H31         0.3246  -13.6018    0.0989 H         1 <0>         0.4263
     77 H32         4.4271  -18.2463   -1.7171 H         1 <0>         0.4396
@<TRIPOS>BOND
     1    1    2 1
     2    1   46 1
     3    1   47 1
     4    1   48 1
     5    2    6 1
     6    2    3 1
     7    3    4 2
     8    4    5 1
     9    4    7 1
    10    5    6 2
    11    7   12 ar
    12    7    8 ar
    13    8    9 ar
    14    8   49 1
    15    9   10 ar
    16    9   50 1
    17   10   16 ar
    18   10   11 ar
    19   11   12 ar
    20   11   13 ar
    21   12   51 1
    22   13   14 ar
    23   14   15 ar
    24   14   23 1
    25   15   16 ar
    26   15   17 1
    27   17   22 ar
    28   17   18 ar
    29   18   19 ar
    30   18   52 1
    31   19   20 ar
    32   19   53 1
    33   20   21 ar
    34   20   54 1
    35   21   22 ar
    36   21   55 1
    37   22   56 1
    38   23   28 ar
    39   23   24 ar
    40   24   25 ar
    41   24   57 1
    42   25   26 ar
    43   25   58 1
    44   26   27 ar
    45   26   29 1
    46   27   28 ar
    47   27   59 1
    48   28   60 1
    49   29   30 1
    50   29   61 1
    51   29   62 1
    52   30   35 1
    53   30   31 1
    54   30   76 1
    55   31   32 1
    56   31   63 1
    57   31   64 1
    58   32   33 1
    59   32   65 1
    60   32   66 1
    61   33   34 1
    62   33   36 1
    63   33   67 1
    64   34   35 1
    65   34   68 1
    66   34   69 1
    67   35   70 1
    68   35   71 1
    69   36   44 am
    70   36   37 1
    71   37   42 ar
    72   37   38 ar
    73   38   39 ar
    74   38   72 1
    75   39   40 ar
    76   39   73 1
    77   40   41 ar
    78   40   74 1
    79   41   42 ar
    80   41   75 1
    81   42   43 1
    82   43   44 am
    83   43   77 1
    84   44   45 2
@<TRIPOS>MOLECULE
CHEMBL493067
   47    50     0     0     0
SMALL
USER_CHARGES

@<TRIPOS>ATOM
      1 C1          0.2335    1.0402   -0.2122 C.3       1 <0>        -0.1579
      2 C2          0.1591   -0.4740   -0.0062 C.3       1 <0>         0.1009
      3 N1         -1.2435   -0.8969    0.0058 N.pl3     1 <0>        -0.4485
      4 C3         -2.0302   -1.0665    1.1129 C.ar      1 <0>         0.1363
      5 C4         -1.8429   -0.9254    2.4975 C.ar      1 <0>        -0.1906
      6 C5         -2.9155   -1.1972    3.3452 C.ar      1 <0>         0.1538
      7 N2         -4.0833   -1.5794    2.8641 N.ar      1 <0>        -0.4836
      8 C6         -4.3066   -1.7256    1.5741 C.ar      1 <0>         0.2268
      9 C7         -3.2946   -1.4766    0.6443 C.ar      1 <0>        -0.0062
     10 N3         -3.2171   -1.5358   -0.7056 N.2       1 <0>        -0.4329
     11 C8         -2.0131   -1.1903   -1.0901 C.2       1 <0>         0.3386
     12 C9         -1.5525   -1.1298   -2.4948 C.2       1 <0>         0.1288
     13 C10        -2.3634   -1.4345   -3.6803 C.2       1 <0>         0.3637
     14 N4         -1.6189   -1.2712   -4.7391 N.2       1 <0>        -0.3431
     15 O1         -0.3314   -0.8661   -4.3093 O.3       1 <0>         0.0495
     16 N5         -0.3542   -0.7902   -2.8949 N.2       1 <0>        -0.2456
     17 N6         -3.6946   -1.8298   -3.6754 N.pl3     1 <0>        -0.8007
     18 C11        -0.5400   -0.4994    3.0427 C.2       1 <0>         0.5770
     19 O2          0.0647    0.4195    2.5247 O.2       1 <0>        -0.5079
     20 N7         -0.0199   -1.1288    4.1150 N.am      1 <0>        -0.7225
     21 C12         1.2740   -0.7058    4.6564 C.3       1 <0>         0.1283
     22 C13         2.4017   -1.4036    3.8903 C.3       1 <0>        -0.1530
     23 C14         3.7454   -1.0157    4.5142 C.3       1 <0>        -0.1443
     24 C15         3.7378   -1.3853    5.9990 C.3       1 <0>        -0.0109
     25 N8          2.6547   -0.6664    6.6804 N.4       1 <0>        -0.4992
     26 C16         1.3581   -1.0869    6.1360 C.3       1 <0>        -0.0192
     27 H1          1.2771    1.3548   -0.2211 H         1 <0>         0.0812
     28 H2         -0.2327    1.3010   -1.1623 H         1 <0>         0.0580
     29 H3         -0.2908    1.5436    0.6001 H         1 <0>         0.0753
     30 H4          0.6835   -0.9774   -0.8184 H         1 <0>         0.1010
     31 H5          0.6254   -0.7348    0.9440 H         1 <0>         0.0995
     32 H6         -2.7887   -1.0936    4.4127 H         1 <0>         0.1696
     33 H7         -5.2813   -2.0410    1.2323 H         1 <0>         0.1831
     34 H8         -4.1690   -1.9255   -2.8347 H         1 <0>         0.4302
     35 H9         -4.1501   -2.0102   -4.5126 H         1 <0>         0.4214
     36 H10        -0.5023   -1.8619    4.5282 H         1 <0>         0.4113
     37 H11         1.3765    0.3743    4.5523 H         1 <0>         0.1142
     38 H12         2.2697   -2.4838    3.9514 H         1 <0>         0.0864
     39 H13         2.3808   -1.0911    2.8463 H         1 <0>         0.0977
     40 H14         4.5492   -1.5519    4.0097 H         1 <0>         0.1184
     41 H15         3.9000    0.0580    4.4071 H         1 <0>         0.0931
     42 H16         3.5835   -2.4591    6.1049 H         1 <0>         0.1331
     43 H17         4.6932   -1.1107    6.4462 H         1 <0>         0.1390
     44 H18         2.6859   -0.8707    7.6680 H         1 <0>         0.4380
     45 H19         0.5565   -0.5920    6.6843 H         1 <0>         0.1422
     46 H20         1.2544   -2.1671    6.2389 H         1 <0>         0.1383
     47 H21         2.7711    0.3261    6.5406 H         1 <0>         0.4314
@<TRIPOS>BOND
     1    1    2 1
     2    1   27 1
     3    1   28 1
     4    1   29 1
     5    2    3 1
     6    2   30 1
     7    2   31 1
     8    3   11 1
     9    3    4 1
    10    4    9 ar
    11    4    5 ar
    12    5    6 ar
    13    5   18 1
    14    6    7 ar
    15    6   32 1
    16    7    8 ar
    17    8    9 ar
    18    8   33 1
    19    9   10 1
    20   10   11 2
    21   11   12 1
    22   12   16 2
    23   12   13 1
    24   13   14 2
    25   13   17 1
    26   14   15 1
    27   15   16 1
    28   17   34 1
    29   17   35 1
    30   18   19 2
    31   18   20 am
    32   20   21 1
    33   20   36 1
    34   21   26 1
    35   21   22 1
    36   21   37 1
    37   22   23 1
    38   22   38 1
    39   22   39 1
    40   23   24 1
    41   23   40 1
    42   23   41 1
    43   24   25 1
    44   24   42 1
    45   24   43 1
    46   25   26 1
    47   25   44 1
    48   25   47 1
    49   26   45 1
    50   26   46 1
@<TRIPOS>MOLECULE
CHEMBL493067
   47    50     0     0     0
SMALL
USER_CHARGES

@<TRIPOS>ATOM
      1 C1          0.2347    1.0378   -0.2131 C.3       1 <0>        -0.1582
      2 C2          0.1598   -0.4763   -0.0060 C.3       1 <0>         0.1016
      3 N1         -1.2429   -0.8987    0.0059 N.pl3     1 <0>        -0.4489
      4 C3         -2.0300   -1.0674    1.1129 C.ar      1 <0>         0.1362
      5 C4         -1.8429   -0.9254    2.4975 C.ar      1 <0>        -0.1910
      6 C5         -2.9158   -1.1963    3.3451 C.ar      1 <0>         0.1545
      7 N2         -4.0836   -1.5785    2.8641 N.ar      1 <0>        -0.4832
      8 C6         -4.3066   -1.7255    1.5741 C.ar      1 <0>         0.2268
      9 C7         -3.2943   -1.4775    0.6443 C.ar      1 <0>        -0.0065
     10 N3         -3.2166   -1.5376   -0.7055 N.2       1 <0>        -0.4326
     11 C8         -2.0124   -1.1927   -1.0900 C.2       1 <0>         0.3381
     12 C9         -1.5514   -1.1333   -2.4946 C.2       1 <0>         0.1291
     13 C10        -2.3622   -1.4386   -3.6801 C.2       1 <0>         0.3637
     14 N4         -1.6174   -1.2761   -4.7388 N.2       1 <0>        -0.3430
     15 O1         -0.3299   -0.8711   -4.3090 O.3       1 <0>         0.0494
     16 N5         -0.3529   -0.7943   -2.8947 N.2       1 <0>        -0.2460
     17 N6         -3.6935   -1.8334   -3.6752 N.pl3     1 <0>        -0.8006
     18 C11        -0.5400   -0.4994    3.0427 C.2       1 <0>         0.5773
     19 O2          0.0647    0.4195    2.5247 O.2       1 <0>        -0.5079
     20 N7         -0.0199   -1.1288    4.1150 N.am      1 <0>        -0.7227
     21 C12         1.2740   -0.7058    4.6564 C.3       1 <0>         0.1289
     22 C13         1.0652    0.4570    5.6307 C.3       1 <0>        -0.1526
     23 C14         2.4126    0.8397    6.2497 C.3       1 <0>        -0.1444
     24 C15         3.0208   -0.3871    6.9328 C.3       1 <0>        -0.0111
     25 N8          3.2201   -1.4535    5.9441 N.4       1 <0>        -0.4994
     26 C16         1.9244   -1.8754    5.3985 C.3       1 <0>        -0.0195
     27 H1          1.2784    1.3521   -0.2220 H         1 <0>         0.0810
     28 H2         -0.2312    1.2980   -1.1635 H         1 <0>         0.0581
     29 H3         -0.2897    1.5419    0.5987 H         1 <0>         0.0756
     30 H4          0.6842   -0.9804   -0.8178 H         1 <0>         0.1008
     31 H5          0.6257   -0.7365    0.9444 H         1 <0>         0.0988
     32 H6         -2.7891   -1.0921    4.4126 H         1 <0>         0.1702
     33 H7         -5.2813   -2.0408    1.2323 H         1 <0>         0.1831
     34 H8         -4.1681   -1.9284   -2.8346 H         1 <0>         0.4302
     35 H9         -4.1489   -2.0142   -4.5123 H         1 <0>         0.4215
     36 H10        -0.5023   -1.8619    4.5282 H         1 <0>         0.4113
     37 H11         1.9229   -0.3862    3.8409 H         1 <0>         0.1117
     38 H12         0.6542    1.3125    5.0946 H         1 <0>         0.1014
     39 H13         0.3754    0.1533    6.4182 H         1 <0>         0.0875
     40 H14         3.0854    1.1919    5.4678 H         1 <0>         0.0921
     41 H15         2.2638    1.6297    6.9858 H         1 <0>         0.1187
     42 H16         3.9802   -0.1180    7.3747 H         1 <0>         0.1387
     43 H17         2.3474   -0.7383    7.7146 H         1 <0>         0.1336
     44 H18         3.8040   -1.1119    5.1955 H         1 <0>         0.4309
     45 H19         1.2743   -2.1948    6.2130 H         1 <0>         0.1392
     46 H20         2.0743   -2.7051    4.7077 H         1 <0>         0.1400
     47 H21         3.6701   -2.2409    6.3863 H         1 <0>         0.4378
@<TRIPOS>BOND
     1    1    2 1
     2    1   27 1
     3    1   28 1
     4    1   29 1
     5    2    3 1
     6    2   30 1
     7    2   31 1
     8    3   11 1
     9    3    4 1
    10    4    9 ar
    11    4    5 ar
    12    5    6 ar
    13    5   18 1
    14    6    7 ar
    15    6   32 1
    16    7    8 ar
    17    8    9 ar
    18    8   33 1
    19    9   10 1
    20   10   11 2
    21   11   12 1
    22   12   16 2
    23   12   13 1
    24   13   14 2
    25   13   17 1
    26   14   15 1
    27   15   16 1
    28   17   34 1
    29   17   35 1
    30   18   19 2
    31   18   20 am
    32   20   21 1
    33   20   36 1
    34   21   26 1
    35   21   22 1
    36   21   37 1
    37   22   23 1
    38   22   38 1
    39   22   39 1
    40   23   24 1
    41   23   40 1
    42   23   41 1
    43   24   25 1
    44   24   42 1
    45   24   43 1
    46   25   26 1
    47   25   44 1
    48   25   47 1
    49   26   45 1
    50   26   46 1
@<TRIPOS>MOLECULE
CHEMBL429703
   72    78     0     0     0
SMALL
USER_CHARGES

@<TRIPOS>ATOM
      1 C1         -0.0167    1.3791    0.0096 C.ar      1 <0>        -0.1095
      2 C2          1.1686    2.0924    0.0021 C.ar      1 <0>        -0.1121
      3 C3          2.3774    1.4269   -0.0129 C.ar      1 <0>        -0.1037
      4 C4          2.4026    0.0330   -0.0206 C.ar      1 <0>        -0.0495
      5 C5          1.2049   -0.6804   -0.0130 C.ar      1 <0>        -0.0993
      6 C6          0.0021   -0.0041    0.0020 C.ar      1 <0>        -0.1214
      7 C7          3.6978   -0.6877   -0.0373 C.ar      1 <0>        -0.0974
      8 C8          4.6763   -0.3476   -0.9576 C.ar      1 <0>        -0.0226
      9 C9          5.8866   -1.0617   -0.9306 C.ar      1 <0>        -0.1488
     10 C10         6.9249   -0.7709   -1.8343 C.ar      1 <0>        -0.0422
     11 C11         8.0755   -1.5042   -1.7522 C.ar      1 <0>        -0.1697
     12 C12         8.1910   -2.5057   -0.7916 C.ar      1 <0>         0.1689
     13 N1          7.2207   -2.7734    0.0487 N.ar      1 <0>        -0.4655
     14 C13         6.0680   -2.0947    0.0240 C.ar      1 <0>         0.3110
     15 N2          5.0919   -2.3827    0.8895 N.ar      1 <0>        -0.4470
     16 C14         3.9497   -1.7249    0.8891 C.ar      1 <0>         0.2184
     17 C15         2.9058   -2.0841    1.8768 C.ar      1 <0>        -0.0129
     18 C16         2.0780   -1.0970    2.4110 C.ar      1 <0>        -0.0802
     19 C17         1.1071   -1.4378    3.3303 C.ar      1 <0>        -0.1006
     20 C18         0.9539   -2.7557    3.7223 C.ar      1 <0>        -0.1487
     21 C19         1.7720   -3.7394    3.1960 C.ar      1 <0>        -0.0968
     22 C20         2.7430   -3.4117    2.2720 C.ar      1 <0>        -0.0725
     23 C21        -0.1081   -3.1211    4.7271 C.3       1 <0>         0.0430
     24 N3         -1.3578   -3.4409    4.0243 N.4       1 <0>        -0.3823
     25 C22        -1.8543   -2.2403    3.3413 C.3       1 <0>        -0.0128
     26 C23        -3.1119   -2.5872    2.5415 C.3       1 <0>        -0.1349
     27 C24        -4.1873   -3.1153    3.4953 C.3       1 <0>        -0.0132
     28 C25        -3.6322   -4.3226    4.2566 C.3       1 <0>        -0.1387
     29 C26        -2.3554   -3.9114    4.9928 C.3       1 <0>        -0.0053
     30 C27        -5.4009   -3.5323    2.7052 C.2       1 <0>         0.0692
     31 C28        -5.5907   -4.7745    2.0995 C.2       1 <0>        -0.2574
     32 C29        -6.8104   -4.7585    1.4842 C.2       1 <0>         0.1493
     33 N4         -7.3609   -3.5316    1.7061 N.pl3     1 <0>        -0.4646
     34 H1         -8.2258   -3.2270    1.3900 H         1 <0>         0.4437
     35 N5         -6.4556   -2.7913    2.4772 N.2       1 <0>        -0.2712
     36 C30        -7.4207   -5.8678    0.7181 C.ar      1 <0>        -0.0499
     37 C31        -6.7409   -7.0776    0.5755 C.ar      1 <0>        -0.0880
     38 C32        -7.3153   -8.1081   -0.1401 C.ar      1 <0>        -0.1150
     39 C33        -8.5624   -7.9432   -0.7158 C.ar      1 <0>        -0.1014
     40 C34        -9.2414   -6.7458   -0.5783 C.ar      1 <0>        -0.1121
     41 C35        -8.6806   -5.7100    0.1404 C.ar      1 <0>        -0.1063
     42 H2         -0.9603    1.9042    0.0260 H         1 <0>         0.1262
     43 H3          1.1478    3.1722    0.0077 H         1 <0>         0.1298
     44 H4          3.3021    1.9847   -0.0191 H         1 <0>         0.1274
     45 H5          1.2183   -1.7603   -0.0193 H         1 <0>         0.1205
     46 H6         -0.9264   -0.5557    0.0082 H         1 <0>         0.1228
     47 H7          4.5135    0.4431   -1.6750 H         1 <0>         0.1508
     48 H8          6.8159    0.0098   -2.5725 H         1 <0>         0.1479
     49 H9          8.8924   -1.3077   -2.4307 H         1 <0>         0.1508
     50 H10         9.1052   -3.0782   -0.7375 H         1 <0>         0.1737
     51 H11         2.1969   -0.0678    2.1059 H         1 <0>         0.1429
     52 H12         0.4657   -0.6742    3.7449 H         1 <0>         0.1349
     53 H13         1.6480   -4.7664    3.5061 H         1 <0>         0.1359
     54 H14         3.3781   -4.1811    1.8584 H         1 <0>         0.1425
     55 H15         0.2181   -3.9884    5.3013 H         1 <0>         0.1389
     56 H16        -0.2750   -2.2810    5.4012 H         1 <0>         0.1368
     57 H17        -2.0935   -1.4754    4.0800 H         1 <0>         0.1309
     58 H18        -1.0866   -1.8638    2.6652 H         1 <0>         0.1350
     59 H19        -3.4799   -1.6941    2.0366 H         1 <0>         0.1140
     60 H20        -2.8736   -3.3520    1.8023 H         1 <0>         0.0921
     61 H21        -4.4626   -2.3334    4.2030 H         1 <0>         0.1037
     62 H22        -4.3723   -4.6700    4.9775 H         1 <0>         0.1169
     63 H23        -3.4048   -5.1234    3.5529 H         1 <0>         0.0942
     64 H24        -1.9577   -4.7687    5.5360 H         1 <0>         0.1348
     65 H25        -2.5839   -3.1108    5.6963 H         1 <0>         0.1315
     66 H26        -4.8967   -5.6019    2.1144 H         1 <0>         0.1496
     67 H27        -5.7670   -7.2072    1.0239 H         1 <0>         0.1282
     68 H28        -6.7900   -9.0452   -0.2512 H         1 <0>         0.1322
     69 H29        -9.0076   -8.7527   -1.2752 H         1 <0>         0.1310
     70 H30       -10.2145   -6.6231   -1.0304 H         1 <0>         0.1317
     71 H31        -9.2138   -4.7773    0.2512 H         1 <0>         0.1197
     72 H32        -1.1838   -4.1650    3.3435 H         1 <0>         0.4225
@<TRIPOS>BOND
     1    1    6 ar
     2    1    2 ar
     3    1   42 1
     4    2    3 ar
     5    2   43 1
     6    3    4 ar
     7    3   44 1
     8    4    5 ar
     9    4    7 1
    10    5    6 ar
    11    5   45 1
    12    6   46 1
    13    7   16 ar
    14    7    8 ar
    15    8    9 ar
    16    8   47 1
    17    9   14 ar
    18    9   10 ar
    19   10   11 ar
    20   10   48 1
    21   11   12 ar
    22   11   49 1
    23   12   13 ar
    24   12   50 1
    25   13   14 ar
    26   14   15 ar
    27   15   16 ar
    28   16   17 1
    29   17   22 ar
    30   17   18 ar
    31   18   19 ar
    32   18   51 1
    33   19   20 ar
    34   19   52 1
    35   20   21 ar
    36   20   23 1
    37   21   22 ar
    38   21   53 1
    39   22   54 1
    40   23   24 1
    41   23   55 1
    42   23   56 1
    43   24   29 1
    44   24   25 1
    45   24   72 1
    46   25   26 1
    47   25   57 1
    48   25   58 1
    49   26   27 1
    50   26   59 1
    51   26   60 1
    52   27   28 1
    53   27   30 1
    54   27   61 1
    55   28   29 1
    56   28   62 1
    57   28   63 1
    58   29   64 1
    59   29   65 1
    60   30   35 2
    61   30   31 1
    62   31   32 2
    63   31   66 1
    64   32   33 1
    65   32   36 1
    66   33   34 1
    67   33   35 1
    68   36   41 ar
    69   36   37 ar
    70   37   38 ar
    71   37   67 1
    72   38   39 ar
    73   38   68 1
    74   39   40 ar
    75   39   69 1
    76   40   41 ar
    77   40   70 1
    78   41   71 1
@<TRIPOS>MOLECULE
CHEMBL429703
   72    78     0     0     0
SMALL
USER_CHARGES

@<TRIPOS>ATOM
      1 C1         -0.0167    1.3791    0.0096 C.ar      1 <0>        -0.1096
      2 C2          1.1686    2.0924    0.0021 C.ar      1 <0>        -0.1114
      3 C3          2.3774    1.4269   -0.0129 C.ar      1 <0>        -0.1031
      4 C4          2.4026    0.0330   -0.0206 C.ar      1 <0>        -0.0488
      5 C5          1.2049   -0.6804   -0.0130 C.ar      1 <0>        -0.1000
      6 C6          0.0021   -0.0041    0.0020 C.ar      1 <0>        -0.1221
      7 C7          3.6978   -0.6877   -0.0373 C.ar      1 <0>        -0.0983
      8 C8          4.6763   -0.3476   -0.9576 C.ar      1 <0>        -0.0219
      9 C9          5.8866   -1.0617   -0.9306 C.ar      1 <0>        -0.1486
     10 C10         6.9249   -0.7709   -1.8343 C.ar      1 <0>        -0.0422
     11 C11         8.0755   -1.5042   -1.7522 C.ar      1 <0>        -0.1691
     12 C12         8.1910   -2.5057   -0.7916 C.ar      1 <0>         0.1694
     13 N1          7.2207   -2.7734    0.0487 N.ar      1 <0>        -0.4655
     14 C13         6.0680   -2.0947    0.0240 C.ar      1 <0>         0.3110
     15 N2          5.0919   -2.3827    0.8895 N.ar      1 <0>        -0.4466
     16 C14         3.9497   -1.7249    0.8891 C.ar      1 <0>         0.2172
     17 C15         2.9058   -2.0841    1.8768 C.ar      1 <0>        -0.0112
     18 C16         2.0780   -1.0970    2.4110 C.ar      1 <0>        -0.0800
     19 C17         1.1071   -1.4378    3.3303 C.ar      1 <0>        -0.1008
     20 C18         0.9539   -2.7557    3.7223 C.ar      1 <0>        -0.1507
     21 C19         1.7720   -3.7394    3.1960 C.ar      1 <0>        -0.0968
     22 C20         2.7430   -3.4117    2.2720 C.ar      1 <0>        -0.0726
     23 C21        -0.1081   -3.1211    4.7271 C.3       1 <0>         0.0433
     24 N3         -1.3578   -3.4409    4.0243 N.4       1 <0>        -0.3833
     25 C22        -1.8543   -2.2403    3.3413 C.3       1 <0>        -0.0120
     26 C23        -3.1119   -2.5872    2.5415 C.3       1 <0>        -0.1455
     27 C24        -4.1873   -3.1153    3.4953 C.3       1 <0>        -0.0304
     28 C25        -3.6322   -4.3226    4.2566 C.3       1 <0>        -0.1405
     29 C26        -2.3554   -3.9114    4.9928 C.3       1 <0>        -0.0058
     30 C27        -5.4009   -3.5323    2.7052 C.2       1 <0>         0.0742
     31 C28        -6.6866   -3.4132    3.1023 C.2       1 <0>        -0.2362
     32 C29        -7.5048   -3.9196    2.0738 C.2       1 <0>         0.1285
     33 N4         -6.7222   -4.3262    1.0967 N.2       1 <0>        -0.2675
     34 H1         -4.6075   -4.2834    0.9422 H         1 <0>         0.4359
     35 N5         -5.3947   -4.0852    1.4732 N.pl3     1 <0>        -0.4708
     36 C30        -8.9875   -3.9839    2.0892 C.ar      1 <0>        -0.0328
     37 C31        -9.6963   -3.5110    3.1915 C.ar      1 <0>        -0.0929
     38 C32       -11.0751   -3.5727    3.2004 C.ar      1 <0>        -0.1205
     39 C33       -11.7532   -4.1029    2.1176 C.ar      1 <0>        -0.1037
     40 C34       -11.0544   -4.5742    1.0209 C.ar      1 <0>        -0.1201
     41 C35        -9.6758   -4.5120    0.9991 C.ar      1 <0>        -0.0890
     42 H2         -0.9603    1.9042    0.0260 H         1 <0>         0.1263
     43 H3          1.1478    3.1722    0.0077 H         1 <0>         0.1303
     44 H4          3.3021    1.9847   -0.0191 H         1 <0>         0.1279
     45 H5          1.2183   -1.7603   -0.0193 H         1 <0>         0.1199
     46 H6         -0.9264   -0.5557    0.0082 H         1 <0>         0.1215
     47 H7          4.5135    0.4431   -1.6750 H         1 <0>         0.1510
     48 H8          6.8159    0.0098   -2.5725 H         1 <0>         0.1483
     49 H9          8.8924   -1.3077   -2.4307 H         1 <0>         0.1512
     50 H10         9.1052   -3.0782   -0.7375 H         1 <0>         0.1741
     51 H11         2.1969   -0.0678    2.1059 H         1 <0>         0.1434
     52 H12         0.4657   -0.6742    3.7449 H         1 <0>         0.1349
     53 H13         1.6480   -4.7664    3.5061 H         1 <0>         0.1357
     54 H14         3.3781   -4.1811    1.8584 H         1 <0>         0.1429
     55 H15         0.2181   -3.9884    5.3013 H         1 <0>         0.1395
     56 H16        -0.2750   -2.2810    5.4012 H         1 <0>         0.1379
     57 H17        -2.0935   -1.4754    4.0800 H         1 <0>         0.1341
     58 H18        -1.0866   -1.8638    2.6652 H         1 <0>         0.1370
     59 H19        -3.4799   -1.6941    2.0366 H         1 <0>         0.1190
     60 H20        -2.8736   -3.3520    1.8023 H         1 <0>         0.0843
     61 H21        -4.4626   -2.3334    4.2030 H         1 <0>         0.1166
     62 H22        -4.3723   -4.6700    4.9775 H         1 <0>         0.1212
     63 H23        -3.4048   -5.1234    3.5529 H         1 <0>         0.0885
     64 H24        -1.9577   -4.7687    5.5360 H         1 <0>         0.1359
     65 H25        -2.5839   -3.1108    5.6963 H         1 <0>         0.1342
     66 H26        -7.0266   -3.0027    4.0416 H         1 <0>         0.1532
     67 H27        -9.1679   -3.0972    4.0376 H         1 <0>         0.1258
     68 H28       -11.6256   -3.2068    4.0545 H         1 <0>         0.1294
     69 H29       -12.8321   -4.1493    2.1287 H         1 <0>         0.1279
     70 H30       -11.5888   -4.9875    0.1782 H         1 <0>         0.1288
     71 H31        -9.1313   -4.8758    0.1402 H         1 <0>         0.1285
     72 H32        -1.1838   -4.1650    3.3435 H         1 <0>         0.4219
@<TRIPOS>BOND
     1    1    6 ar
     2    1    2 ar
     3    1   42 1
     4    2    3 ar
     5    2   43 1
     6    3    4 ar
     7    3   44 1
     8    4    5 ar
     9    4    7 1
    10    5    6 ar
    11    5   45 1
    12    6   46 1
    13    7   16 ar
    14    7    8 ar
    15    8    9 ar
    16    8   47 1
    17    9   14 ar
    18    9   10 ar
    19   10   11 ar
    20   10   48 1
    21   11   12 ar
    22   11   49 1
    23   12   13 ar
    24   12   50 1
    25   13   14 ar
    26   14   15 ar
    27   15   16 ar
    28   16   17 1
    29   17   22 ar
    30   17   18 ar
    31   18   19 ar
    32   18   51 1
    33   19   20 ar
    34   19   52 1
    35   20   21 ar
    36   20   23 1
    37   21   22 ar
    38   21   53 1
    39   22   54 1
    40   23   24 1
    41   23   55 1
    42   23   56 1
    43   24   29 1
    44   24   25 1
    45   24   72 1
    46   25   26 1
    47   25   57 1
    48   25   58 1
    49   26   27 1
    50   26   59 1
    51   26   60 1
    52   27   28 1
    53   27   61 1
    54   27   30 1
    55   28   29 1
    56   28   62 1
    57   28   63 1
    58   29   64 1
    59   29   65 1
    60   30   31 2
    61   30   35 1
    62   31   32 1
    63   31   66 1
    64   32   33 2
    65   32   36 1
    66   33   35 1
    67   34   35 1
    68   36   41 ar
    69   36   37 ar
    70   37   38 ar
    71   37   67 1
    72   38   39 ar
    73   38   68 1
    74   39   40 ar
    75   39   69 1
    76   40   41 ar
    77   40   70 1
    78   41   71 1
@<TRIPOS>MOLECULE
CHEMBL521658
   59    62     0     0     0
SMALL
USER_CHARGES

@<TRIPOS>ATOM
      1 C1         -0.0187    1.5258    0.0104 C.3       1 <0>        -0.1661
      2 C2          0.0021   -0.0041    0.0020 C.3       1 <0>         0.1008
      3 N1         -1.3723   -0.5112    0.0124 N.pl3     1 <0>        -0.4460
      4 C3         -2.1312   -0.7950    1.1245 C.ar      1 <0>         0.0724
      5 C4         -1.9274   -0.7247    2.5030 C.ar      1 <0>         0.0995
      6 C5         -2.9519   -1.1051    3.3531 C.ar      1 <0>         0.0252
      7 N2         -4.1109   -1.5310    2.8851 N.ar      1 <0>        -0.4275
      8 C6         -4.3616   -1.6189    1.5860 C.ar      1 <0>         0.2939
      9 C7         -3.3742   -1.2514    0.6481 C.ar      1 <0>         0.0638
     10 N3         -3.3200   -1.2263   -0.6948 N.2       1 <0>        -0.4362
     11 C8         -2.1470   -0.7867   -1.0830 C.2       1 <0>         0.3412
     12 C9         -1.7235   -0.6177   -2.4903 C.2       1 <0>         0.1321
     13 C10        -2.5421   -0.9023   -3.6755 C.2       1 <0>         0.3645
     14 N4         -1.8334   -0.6335   -4.7373 N.2       1 <0>        -0.3434
     15 O1         -0.5627   -0.1765   -4.3099 O.3       1 <0>         0.0489
     16 N5         -0.5570   -0.1836   -2.8933 N.2       1 <0>        -0.2492
     17 N6         -3.8472   -1.3769   -3.6677 N.pl3     1 <0>        -0.8001
     18 C11        -5.6368   -2.0883    1.1343 C.1       1 <0>        -0.1196
     19 C12        -6.6824   -2.4730    0.7641 C.1       1 <0>        -0.0820
     20 C13        -7.9933   -2.9555    0.2998 C.3       1 <0>         0.2405
     21 C14        -8.0222   -2.9607   -1.2299 C.3       1 <0>        -0.1767
     22 C15        -8.2273   -4.3755    0.8192 C.3       1 <0>        -0.1771
     23 O2         -9.0202   -2.0927    0.7927 O.3       1 <0>        -0.5532
     24 O3         -0.7408   -0.2897    3.0038 O.3       1 <0>        -0.3096
     25 C16        -0.6134   -0.2476    4.4265 C.3       1 <0>         0.0567
     26 C17         0.7797    0.2638    4.7989 C.3       1 <0>        -0.0993
     27 C18         1.8358   -0.7442    4.3366 C.3       1 <0>        -0.1447
     28 C19         3.2193   -0.2656    4.7820 C.3       1 <0>        -0.0073
     29 N7          3.2547   -0.1539    6.2452 N.4       1 <0>        -0.5067
     30 C20         2.2946    0.8632    6.6904 C.3       1 <0>        -0.0042
     31 C21         0.8756    0.4280    6.3185 C.3       1 <0>        -0.1438
     32 H1          1.0039    1.9031    0.0027 H         1 <0>         0.0849
     33 H2         -0.5459    1.8868   -0.8726 H         1 <0>         0.0655
     34 H3         -0.5289    1.8773    0.9072 H         1 <0>         0.0639
     35 H4          0.5123   -0.3556   -0.8948 H         1 <0>         0.1087
     36 H5          0.5293   -0.3651    0.8851 H         1 <0>         0.1005
     37 H6         -2.7999   -1.0528    4.4211 H         1 <0>         0.1723
     38 H7         -4.2955   -1.5492   -2.8249 H         1 <0>         0.4310
     39 H8         -4.3104   -1.5361   -4.5049 H         1 <0>         0.4211
     40 H9         -7.2389   -3.6188   -1.6059 H         1 <0>         0.0724
     41 H10        -8.9930   -3.3180   -1.5737 H         1 <0>         0.0744
     42 H11        -7.8555   -1.9491   -1.5999 H         1 <0>         0.0707
     43 H12        -8.2066   -4.3718    1.9090 H         1 <0>         0.0709
     44 H13        -9.1980   -4.7328    0.4754 H         1 <0>         0.0744
     45 H14        -7.4439   -5.0336    0.4432 H         1 <0>         0.0726
     46 H15        -9.9129   -2.3509    0.5251 H         1 <0>         0.3892
     47 H16        -1.3684    0.4215    4.8392 H         1 <0>         0.0804
     48 H17        -0.7537   -1.2489    4.8336 H         1 <0>         0.0756
     49 H18         0.9560    1.2253    4.3166 H         1 <0>         0.1031
     50 H19         1.6276   -1.7182    4.7793 H         1 <0>         0.0914
     51 H20         1.8109   -0.8248    3.2499 H         1 <0>         0.1164
     52 H21         3.9736   -0.9809    4.4543 H         1 <0>         0.1356
     53 H22         3.4265    0.7083    4.3386 H         1 <0>         0.1321
     54 H23         3.0147   -1.0440    6.6553 H         1 <0>         0.4287
     55 H24         2.3663    0.9812    7.7717 H         1 <0>         0.1378
     56 H25         2.5216    1.8131    6.2063 H         1 <0>         0.1328
     57 H26         0.1644    1.1853    6.6483 H         1 <0>         0.1184
     58 H27         0.6475   -0.5217    6.8023 H         1 <0>         0.0948
     59 H28         4.1832    0.1101    6.5389 H         1 <0>         0.4339
@<TRIPOS>BOND
     1    1    2 1
     2    1   32 1
     3    1   33 1
     4    1   34 1
     5    2    3 1
     6    2   35 1
     7    2   36 1
     8    3   11 1
     9    3    4 1
    10    4    9 ar
    11    4    5 ar
    12    5    6 ar
    13    5   24 1
    14    6    7 ar
    15    6   37 1
    16    7    8 ar
    17    8    9 ar
    18    8   18 1
    19    9   10 1
    20   10   11 2
    21   11   12 1
    22   12   16 2
    23   12   13 1
    24   13   14 2
    25   13   17 1
    26   14   15 1
    27   15   16 1
    28   17   38 1
    29   17   39 1
    30   18   19 3
    31   19   20 1
    32   20   21 1
    33   20   22 1
    34   20   23 1
    35   21   40 1
    36   21   41 1
    37   21   42 1
    38   22   43 1
    39   22   44 1
    40   22   45 1
    41   23   46 1
    42   24   25 1
    43   25   26 1
    44   25   47 1
    45   25   48 1
    46   26   31 1
    47   26   27 1
    48   26   49 1
    49   27   28 1
    50   27   50 1
    51   27   51 1
    52   28   29 1
    53   28   52 1
    54   28   53 1
    55   29   30 1
    56   29   54 1
    57   29   59 1
    58   30   31 1
    59   30   55 1
    60   30   56 1
    61   31   57 1
    62   31   58 1
@<TRIPOS>MOLECULE
CHEMBL599849
   48    51     0     0     0
SMALL
USER_CHARGES

@<TRIPOS>ATOM
      1 C1          3.7195   -1.6757   -1.8737 C.ar      1 <0>        -0.1054
      2 C2          3.6753   -0.4269   -1.2822 C.ar      1 <0>        -0.0746
      3 C3          4.8213    0.3412   -1.2020 C.ar      1 <0>        -0.1001
      4 C4          6.0139   -0.1394   -1.7133 C.ar      1 <0>        -0.0127
      5 C5          6.0589   -1.3888   -2.3048 C.ar      1 <0>        -0.1036
      6 C6          4.9112   -2.1572   -2.3852 C.ar      1 <0>        -0.0167
      7 Cl1         4.9667   -3.7256   -3.1274 Cl        1 <0>        -0.0495
      8 Cl2         7.4533    0.8259   -1.6129 Cl        1 <0>        -0.0442
      9 C7          4.7720    1.7028   -0.5579 C.3       1 <0>         0.1601
     10 N1          5.3902    1.6381    0.7687 N.am      1 <0>        -0.7259
     11 C8          5.4599    2.7451    1.5343 C.2       1 <0>         0.4885
     12 O1          5.0109    3.7948    1.1250 O.2       1 <0>        -0.5195
     13 C9          6.0958    2.6786    2.8990 C.3       1 <0>         0.1171
     14 C10         5.5991    3.8493    3.7505 C.3       1 <0>        -0.1070
     15 C11         5.9511    5.1675    3.0540 C.3       1 <0>         0.1309
     16 N2          7.3950    5.1884    2.7831 N.pl3     1 <0>        -0.6547
     17 C12         7.9924    4.0645    2.0491 C.3       1 <0>         0.1533
     18 C13         7.6175    2.7585    2.7568 C.3       1 <0>        -0.1205
     19 C14         8.1771    6.2463    3.2104 C.ar      1 <0>         0.4830
     20 C15         8.2981    7.4103    2.4359 C.ar      1 <0>        -0.2088
     21 C16         7.7611    7.8616    1.1535 C.2       1 <0>        -0.1617
     22 C17         8.2492    9.0945    0.9404 C.2       1 <0>         0.0511
     23 N3          9.0546    9.4625    1.9869 N.pl3     1 <0>        -0.5739
     24 H1          9.5199   10.3105    2.0593 H         1 <0>         0.4226
     25 C18         9.1052    8.4586    2.9145 C.ar      1 <0>         0.3188
     26 N4          9.7230    8.3032    4.0846 N.ar      1 <0>        -0.5384
     27 C19         9.5813    7.1939    4.7770 C.ar      1 <0>         0.3260
     28 N5          8.8287    6.1882    4.3680 N.ar      1 <0>        -0.5512
     29 N6          5.7307    1.4123    3.5478 N.3       1 <0>        -0.8281
     30 H2          2.8245   -2.2772   -1.9325 H         1 <0>         0.1446
     31 H3          2.7447   -0.0514   -0.8830 H         1 <0>         0.1457
     32 H4          6.9895   -1.7644   -2.7040 H         1 <0>         0.1477
     33 H5          5.3143    2.4174   -1.1770 H         1 <0>         0.0864
     34 H6          3.7341    2.0211   -0.4600 H         1 <0>         0.0840
     35 H7          5.7493    0.7986    1.0960 H         1 <0>         0.3969
     36 H8          4.5181    3.7787    3.8708 H         1 <0>         0.0709
     37 H9          6.0775    3.8159    4.7293 H         1 <0>         0.0833
     38 H10         5.4021    5.2429    2.1155 H         1 <0>         0.1070
     39 H11         5.6887    6.0043    3.7015 H         1 <0>         0.0614
     40 H12         7.6098    4.0499    1.0286 H         1 <0>         0.0573
     41 H13         9.0768    4.1734    2.0335 H         1 <0>         0.0713
     42 H14         8.0769    2.7354    3.7450 H         1 <0>         0.0925
     43 H15         7.9730    1.9117    2.1699 H         1 <0>         0.0711
     44 H16         7.0994    7.3096    0.5025 H         1 <0>         0.1540
     45 H17         8.0392    9.7043    0.0741 H         1 <0>         0.1826
     46 H18        10.0978    7.1035    5.7212 H         1 <0>         0.1991
     47 H19         4.7302    1.3351    3.6529 H         1 <0>         0.3483
     48 H20         6.1026    0.6246    3.0385 H         1 <0>         0.3408
@<TRIPOS>BOND
     1    1    6 ar
     2    1    2 ar
     3    1   30 1
     4    2    3 ar
     5    2   31 1
     6    3    4 ar
     7    3    9 1
     8    4    5 ar
     9    4    8 1
    10    5    6 ar
    11    5   32 1
    12    6    7 1
    13    9   10 1
    14    9   33 1
    15    9   34 1
    16   10   11 am
    17   10   35 1
    18   11   12 2
    19   11   13 1
    20   13   18 1
    21   13   14 1
    22   13   29 1
    23   14   15 1
    24   14   36 1
    25   14   37 1
    26   15   16 1
    27   15   38 1
    28   15   39 1
    29   16   17 1
    30   16   19 1
    31   17   18 1
    32   17   40 1
    33   17   41 1
    34   18   42 1
    35   18   43 1
    36   19   28 ar
    37   19   20 ar
    38   20   25 ar
    39   20   21 1
    40   21   22 2
    41   21   44 1
    42   22   23 1
    43   22   45 1
    44   23   24 1
    45   23   25 1
    46   25   26 ar
    47   26   27 ar
    48   27   28 ar
    49   27   46 1
    50   29   47 1
    51   29   48 1
@<TRIPOS>MOLECULE
CHEMBL599849
   49    52     0     0     0
SMALL
USER_CHARGES

@<TRIPOS>ATOM
      1 C1         -0.2517    1.9911    0.4608 C.ar      1 <0>        -0.1016
      2 C2          1.0034    2.5593    0.3476 C.ar      1 <0>        -0.0694
      3 C3          2.1224    1.7528    0.2613 C.ar      1 <0>        -0.1142
      4 C4          1.9870    0.3759    0.2886 C.ar      1 <0>        -0.0146
      5 C5          0.7316   -0.1931    0.4022 C.ar      1 <0>        -0.1020
      6 C6         -0.3883    0.6147    0.4881 C.ar      1 <0>        -0.0108
      7 Cl1        -1.9645   -0.0986    0.6308 Cl        1 <0>        -0.0361
      8 Cl2         3.3927   -0.6370    0.1796 Cl        1 <0>        -0.0540
      9 C7          3.4902    2.3730    0.1370 C.3       1 <0>         0.1606
     10 N1          4.1941    2.2638    1.4172 N.am      1 <0>        -0.7203
     11 C8          5.4433    2.7538    1.5433 C.2       1 <0>         0.5053
     12 O1          5.9847    3.2852    0.5970 O.2       1 <0>        -0.4609
     13 C9          6.1674    2.6414    2.8602 C.3       1 <0>         0.0489
     14 C10         5.6984    3.7572    3.7967 C.3       1 <0>        -0.1514
     15 C11         5.9725    5.1155    3.1436 C.3       1 <0>         0.1543
     16 N2          7.3950    5.1884    2.7831 N.pl3     1 <0>        -0.6530
     17 C12         7.9709    4.1165    1.9596 C.3       1 <0>         0.1335
     18 C13         7.6744    2.7694    2.6260 C.3       1 <0>        -0.1390
     19 C14         8.1771    6.2463    3.2104 C.ar      1 <0>         0.4633
     20 C15         8.2981    7.4103    2.4359 C.ar      1 <0>        -0.2032
     21 C16         7.7611    7.8616    1.1535 C.2       1 <0>        -0.1725
     22 C17         8.2492    9.0945    0.9404 C.2       1 <0>         0.0667
     23 N3          9.0546    9.4625    1.9869 N.pl3     1 <0>        -0.5704
     24 H1          9.5199   10.3105    2.0593 H         1 <0>         0.4275
     25 C18         9.1052    8.4586    2.9145 C.ar      1 <0>         0.3220
     26 N4          9.7230    8.3032    4.0846 N.ar      1 <0>        -0.5257
     27 C19         9.5813    7.1939    4.7770 C.ar      1 <0>         0.3266
     28 N5          8.8287    6.1882    4.3680 N.ar      1 <0>        -0.5514
     29 N6          5.8759    1.3368    3.4692 N.4       1 <0>        -0.6341
     30 H2         -1.1254    2.6219    0.5323 H         1 <0>         0.1492
     31 H3          1.1096    3.6339    0.3263 H         1 <0>         0.1488
     32 H4          0.6254   -1.2677    0.4235 H         1 <0>         0.1509
     33 H5          4.0567    1.8518   -0.6347 H         1 <0>         0.0979
     34 H6          3.3894    3.4241   -0.1336 H         1 <0>         0.0976
     35 H7          3.7612    1.8388    2.1740 H         1 <0>         0.3935
     36 H8          4.6294    3.6516    3.9817 H         1 <0>         0.0997
     37 H9          6.2397    3.6915    4.7406 H         1 <0>         0.1117
     38 H10         5.3624    5.2194    2.2464 H         1 <0>         0.0709
     39 H11         5.7322    5.9138    3.8459 H         1 <0>         0.0934
     40 H12         7.5237    4.1389    0.9658 H         1 <0>         0.1155
     41 H13         9.0491    4.2556    1.8806 H         1 <0>         0.0851
     42 H14         8.1970    2.7130    3.5808 H         1 <0>         0.1038
     43 H15         8.0117    1.9607    1.9776 H         1 <0>         0.1002
     44 H16         7.0994    7.3096    0.5025 H         1 <0>         0.1546
     45 H17         8.0392    9.7043    0.0741 H         1 <0>         0.1868
     46 H18        10.0978    7.1035    5.7212 H         1 <0>         0.2026
     47 H19         6.1844    0.6008    2.8517 H         1 <0>         0.4394
     48 H20         6.3606    1.2613    4.3509 H         1 <0>         0.4447
     49 H21         4.8823    1.2520    3.6233 H         1 <0>         0.4294
@<TRIPOS>BOND
     1    1    6 ar
     2    1    2 ar
     3    1   30 1
     4    2    3 ar
     5    2   31 1
     6    3    4 ar
     7    3    9 1
     8    4    5 ar
     9    4    8 1
    10    5    6 ar
    11    5   32 1
    12    6    7 1
    13    9   10 1
    14    9   33 1
    15    9   34 1
    16   10   11 am
    17   10   35 1
    18   11   12 2
    19   11   13 1
    20   13   18 1
    21   13   14 1
    22   13   29 1
    23   14   15 1
    24   14   36 1
    25   14   37 1
    26   15   16 1
    27   15   38 1
    28   15   39 1
    29   16   17 1
    30   16   19 1
    31   17   18 1
    32   17   40 1
    33   17   41 1
    34   18   42 1
    35   18   43 1
    36   19   28 ar
    37   19   20 ar
    38   20   25 ar
    39   20   21 1
    40   21   22 2
    41   21   44 1
    42   22   23 1
    43   22   45 1
    44   23   24 1
    45   23   25 1
    46   25   26 ar
    47   26   27 ar
    48   27   28 ar
    49   27   46 1
    50   29   47 1
    51   29   48 1
    52   29   49 1
@<TRIPOS>MOLECULE
CHEMBL1079175
   53    58     0     0     0
SMALL
USER_CHARGES

@<TRIPOS>ATOM
      1 C1         -0.0167    1.3792    0.0096 C.ar      1 <0>        -0.1098
      2 C2          1.1686    2.0926    0.0021 C.ar      1 <0>        -0.1129
      3 C3          2.3774    1.4273   -0.0130 C.ar      1 <0>        -0.1018
      4 C4          2.4027    0.0331   -0.0207 C.ar      1 <0>        -0.0532
      5 C5          1.2048   -0.6804   -0.0131 C.ar      1 <0>        -0.0972
      6 C6          0.0021   -0.0041    0.0020 C.ar      1 <0>        -0.1217
      7 C7          3.6976   -0.6873   -0.0375 C.ar      1 <0>        -0.0895
      8 C8          4.6832   -0.3453   -0.9637 C.ar      1 <0>        -0.0030
      9 C9          5.8807   -1.0537   -0.9352 C.ar      1 <0>        -0.0817
     10 C10         6.0621   -2.0835    0.0163 C.ar      1 <0>         0.2098
     11 C11         7.3365   -2.8113    0.0182 C.2       1 <0>        -0.1560
     12 C12         8.2922   -2.4985   -0.8622 C.2       1 <0>         0.1454
     13 N1          8.1430   -1.5000   -1.7996 N.am      1 <0>        -0.4929
     14 C13         6.9753   -0.7619   -1.8753 C.2       1 <0>         0.3089
     15 N2          7.0941    0.1108   -2.8403 N.2       1 <0>        -0.2482
     16 N3          8.3615   -0.0506   -3.4156 N.am      1 <0>        -0.5283
     17 H1          8.7252    0.4618   -4.1545 H         1 <0>         0.4679
     18 C14         8.9833   -1.0478   -2.7556 C.2       1 <0>         0.6564
     19 O1         10.1052   -1.4664   -2.9807 O.2       1 <0>        -0.5212
     20 N4          5.0992   -2.3771    0.8804 N.ar      1 <0>        -0.4545
     21 C15         3.9492   -1.7199    0.8843 C.ar      1 <0>         0.1979
     22 C16         2.9074   -2.0823    1.8731 C.ar      1 <0>        -0.0255
     23 C17         2.0785   -1.0974    2.4096 C.ar      1 <0>        -0.0664
     24 C18         1.1099   -1.4411    3.3303 C.ar      1 <0>        -0.1341
     25 C19         0.9603   -2.7596    3.7214 C.ar      1 <0>        -0.1011
     26 C20         1.7795   -3.7411    3.1928 C.ar      1 <0>        -0.0980
     27 C21         2.7478   -3.4106    2.2670 C.ar      1 <0>        -0.0610
     28 C22        -0.0992   -3.1282    4.7278 C.3       1 <0>         0.0637
     29 C23         0.4698   -3.6059    6.0743 C.3       1 <0>        -0.1268
     30 C24        -0.6447   -4.6656    6.0798 C.3       1 <0>        -0.1586
     31 C25        -0.6528   -4.5514    4.5462 C.3       1 <0>        -0.1320
     32 N5         -1.1431   -2.1030    4.8585 N.4       1 <0>        -0.6175
     33 H2         -0.9603    1.9042    0.0260 H         1 <0>         0.1263
     34 H3          1.1477    3.1723    0.0078 H         1 <0>         0.1304
     35 H4          3.3021    1.9852   -0.0192 H         1 <0>         0.1293
     36 H5          1.2182   -1.7603   -0.0191 H         1 <0>         0.1222
     37 H6         -0.9264   -0.5557    0.0083 H         1 <0>         0.1241
     38 H7          4.5215    0.4452   -1.6816 H         1 <0>         0.1595
     39 H8          7.5029   -3.6026    0.7341 H         1 <0>         0.1729
     40 H9          9.2198   -3.0510   -0.8374 H         1 <0>         0.1807
     41 H10         2.1946   -0.0677    2.1053 H         1 <0>         0.1437
     42 H11         0.4676   -0.6792    3.7467 H         1 <0>         0.1184
     43 H12         1.6579   -4.7688    3.5020 H         1 <0>         0.1392
     44 H13         3.3839   -4.1783    1.8517 H         1 <0>         0.1450
     45 H14         1.4723   -4.0271    5.9999 H         1 <0>         0.1262
     46 H15         0.3768   -2.8703    6.8732 H         1 <0>         0.0946
     47 H16        -0.3188   -5.6401    6.4433 H         1 <0>         0.1018
     48 H17        -1.5684   -4.3253    6.5478 H         1 <0>         0.0931
     49 H18        -1.6520   -4.5791    4.1116 H         1 <0>         0.0957
     50 H19         0.0429   -5.2310    4.0541 H         1 <0>         0.1275
     51 H20        -1.7011   -2.0821    4.0181 H         1 <0>         0.4388
     52 H21        -1.7322   -2.3215    5.6481 H         1 <0>         0.4379
     53 H22        -0.7131   -1.2011    4.9992 H         1 <0>         0.4354
@<TRIPOS>BOND
     1    1    6 ar
     2    1    2 ar
     3    1   33 1
     4    2    3 ar
     5    2   34 1
     6    3    4 ar
     7    3   35 1
     8    4    5 ar
     9    4    7 1
    10    5    6 ar
    11    5   36 1
    12    6   37 1
    13    7   21 ar
    14    7    8 ar
    15    8    9 ar
    16    8   38 1
    17    9   14 1
    18    9   10 ar
    19   10   11 1
    20   10   20 ar
    21   11   12 2
    22   11   39 1
    23   12   13 1
    24   12   40 1
    25   13   18 am
    26   13   14 1
    27   14   15 2
    28   15   16 1
    29   16   17 1
    30   16   18 am
    31   18   19 2
    32   20   21 ar
    33   21   22 1
    34   22   27 ar
    35   22   23 ar
    36   23   24 ar
    37   23   41 1
    38   24   25 ar
    39   24   42 1
    40   25   26 ar
    41   25   28 1
    42   26   27 ar
    43   26   43 1
    44   27   44 1
    45   28   31 1
    46   28   29 1
    47   28   32 1
    48   29   30 1
    49   29   45 1
    50   29   46 1
    51   30   31 1
    52   30   47 1
    53   30   48 1
    54   31   49 1
    55   31   50 1
    56   32   51 1
    57   32   52 1
    58   32   53 1
@<TRIPOS>MOLECULE
CHEMBL470598
   54    57     0     0     0
SMALL
USER_CHARGES

@<TRIPOS>ATOM
      1 C1         -0.2011    0.7877   -1.7735 C.2       1 <0>        -0.2122
      2 C2          1.0307    1.0169   -2.2602 C.2       1 <0>         0.0883
      3 N1          1.9240    0.1502   -1.6910 N.pl3     1 <0>        -0.5767
      4 H1          2.8741    0.1236   -1.8845 H         1 <0>         0.4274
      5 C3          1.2763   -0.6769   -0.8042 C.ar      1 <0>         0.2904
      6 C4         -0.0823   -0.3115   -0.8193 C.ar      1 <0>        -0.1242
      7 C5         -0.9922   -1.0029    0.0055 C.ar      1 <0>         0.0346
      8 C6         -0.4906   -2.0319    0.8084 C.ar      1 <0>        -0.1467
      9 C7          0.8590   -2.3265    0.7623 C.ar      1 <0>         0.1426
     10 N2          1.6874   -1.6634   -0.0182 N.ar      1 <0>        -0.4753
     11 C8         -2.4246   -0.6527    0.0215 C.2       1 <0>        -0.0154
     12 C9         -3.5275   -1.4903   -0.0615 C.2       1 <0>        -0.1493
     13 C10        -4.7765   -0.9367   -0.0262 C.2       1 <0>        -0.0197
     14 C11        -4.8916    0.4412    0.0913 C.2       1 <0>        -0.2776
     15 S1         -3.1840    0.9570    0.1604 S.3       1 <0>         0.1744
     16 C12        -6.1045    1.2621    0.1495 C.2       1 <0>         0.6115
     17 O1         -7.1998    0.7345    0.0929 O.2       1 <0>        -0.5347
     18 N3         -6.0068    2.6013    0.2658 N.am      1 <0>        -0.7304
     19 C13        -7.2190    3.4218    0.3241 C.3       1 <0>         0.1149
     20 H2         -7.9983    2.8812    0.8612 H         1 <0>         0.1247
     21 C14        -6.9133    4.7324    1.0519 C.3       1 <0>        -0.1243
     22 C15        -6.5555    4.4349    2.5094 C.3       1 <0>        -0.0876
     23 C16        -7.7749    3.8496    3.2247 C.3       1 <0>        -0.1172
     24 C17        -7.4171    3.5521    4.6822 C.3       1 <0>        -0.1213
     25 C18        -6.9909    4.8467    5.3772 C.3       1 <0>        -0.1233
     26 C19        -5.7715    5.4320    4.6620 C.3       1 <0>        -0.1222
     27 C20        -6.1293    5.7296    3.2045 C.3       1 <0>        -0.1145
     28 C21        -7.6970    3.7271   -1.0969 C.3       1 <0>        -0.0228
     29 N4         -7.8760    2.4692   -1.8342 N.4       1 <0>        -0.6350
     30 Br1        -3.3069   -3.3616   -0.2210 Br        1 <0>         0.0013
     31 H3         -1.1050    1.3181   -2.0346 H         1 <0>         0.1487
     32 H4          1.2785    1.7721   -2.9914 H         1 <0>         0.1855
     33 H5         -1.1498   -2.5896    1.4571 H         1 <0>         0.1469
     34 H6          1.2448   -3.1215    1.3832 H         1 <0>         0.1741
     35 H7         -5.6567   -1.5594   -0.0888 H         1 <0>         0.1600
     36 H8         -5.1338    3.0218    0.3109 H         1 <0>         0.4157
     37 H9         -6.0742    5.2306    0.5662 H         1 <0>         0.0846
     38 H10        -7.7894    5.3799    1.0178 H         1 <0>         0.0975
     39 H11        -5.7355    3.7175    2.5431 H         1 <0>         0.0742
     40 H12        -8.5948    4.5670    3.1910 H         1 <0>         0.0669
     41 H13        -8.0785    2.9273    2.7295 H         1 <0>         0.0582
     42 H14        -8.2858    3.1351    5.1917 H         1 <0>         0.0651
     43 H15        -6.5971    2.8347    4.7158 H         1 <0>         0.0608
     44 H16        -7.8108    5.5641    5.3435 H         1 <0>         0.0635
     45 H17        -6.7360    4.6348    6.4156 H         1 <0>         0.0651
     46 H18        -5.4679    6.3544    5.1572 H         1 <0>         0.0668
     47 H19        -4.9515    4.7146    4.6957 H         1 <0>         0.0618
     48 H20        -5.2606    6.1465    2.6950 H         1 <0>         0.0642
     49 H21        -6.9493    6.4469    3.1708 H         1 <0>         0.0665
     50 H22        -8.6461    4.2614   -1.0541 H         1 <0>         0.1501
     51 H23        -6.9556    4.3437   -1.6050 H         1 <0>         0.1384
     52 H24        -6.9974    1.9747   -1.8739 H         1 <0>         0.4264
     53 H25        -8.5623    1.8985   -1.3639 H         1 <0>         0.4424
     54 H26        -8.1912    2.6706   -2.7713 H         1 <0>         0.4365
@<TRIPOS>BOND
     1    1    6 1
     2    1    2 2
     3    1   31 1
     4    2    3 1
     5    2   32 1
     6    3    4 1
     7    3    5 1
     8    5   10 ar
     9    5    6 ar
    10    6    7 ar
    11    7    8 ar
    12    7   11 1
    13    8    9 ar
    14    8   33 1
    15    9   10 ar
    16    9   34 1
    17   11   15 1
    18   11   12 2
    19   12   13 1
    20   12   30 1
    21   13   14 2
    22   13   35 1
    23   14   15 1
    24   14   16 1
    25   16   17 2
    26   16   18 am
    27   18   19 1
    28   18   36 1
    29   19   20 1
    30   19   21 1
    31   19   28 1
    32   21   22 1
    33   21   37 1
    34   21   38 1
    35   22   27 1
    36   22   23 1
    37   22   39 1
    38   23   24 1
    39   23   40 1
    40   23   41 1
    41   24   25 1
    42   24   42 1
    43   24   43 1
    44   25   26 1
    45   25   44 1
    46   25   45 1
    47   26   27 1
    48   26   46 1
    49   26   47 1
    50   27   48 1
    51   27   49 1
    52   28   29 1
    53   28   50 1
    54   28   51 1
    55   29   52 1
    56   29   53 1
    57   29   54 1
@<TRIPOS>MOLECULE
CHEMBL207139
   78    83     0     0     0
SMALL
USER_CHARGES

@<TRIPOS>ATOM
      1 C1         -0.0633    1.5159   -0.2866 C.3       1 <0>        -0.1829
      2 C2         -0.0052    0.0123   -0.0095 C.3       1 <0>        -0.0497
      3 C3          0.7747   -0.2385    1.2826 C.3       1 <0>        -0.1648
      4 C4         -1.4266   -0.5342    0.1385 C.3       1 <0>        -0.1437
      5 C5         -2.0737    0.0602    1.3911 C.3       1 <0>         0.0220
      6 C6         -3.4386   -0.6130    1.6467 C.3       1 <0>        -0.1381
      7 C7         -4.3216    0.5634    2.1398 C.3       1 <0>        -0.1439
      8 C8         -3.7827    1.7383    1.2861 C.3       1 <0>        -0.0145
      9 N1         -2.3270    1.4988    1.1902 N.4       1 <0>        -0.5222
     10 C9          0.6941   -0.6940   -1.1727 C.3       1 <0>        -0.0710
     11 C10         2.0674   -0.1051   -1.4013 C.ar      1 <0>        -0.1363
     12 C11         3.1893   -0.0201   -0.6118 C.ar      1 <0>        -0.0494
     13 C12         4.3395    0.5962   -1.1050 C.ar      1 <0>        -0.0703
     14 C13         4.3391    1.1208   -2.3967 C.ar      1 <0>        -0.0607
     15 C14         3.2112    1.0316   -3.1811 C.ar      1 <0>        -0.1297
     16 C15         2.0597    0.4157   -2.6904 C.ar      1 <0>         0.1582
     17 N2          0.8156    0.2083   -3.2860 N.am      1 <0>        -0.6567
     18 C16        -0.0392   -0.4317   -2.4707 C.2       1 <0>         0.5302
     19 O1         -1.1837   -0.7411   -2.7267 O.2       1 <0>        -0.4878
     20 C17         5.5552    0.6932   -0.2602 C.ar      1 <0>        -0.0449
     21 C18         6.7085    1.3142   -0.7457 C.ar      1 <0>        -0.0958
     22 C19         7.8198    1.3789    0.0847 C.ar      1 <0>         0.0748
     23 C20         7.7466    0.8291    1.3574 C.ar      1 <0>         0.0257
     24 N3          6.6414    0.2498    1.7833 N.ar      1 <0>        -0.4366
     25 C21         5.5622    0.1715    1.0319 C.ar      1 <0>         0.0838
     26 O2          8.9650    1.9728   -0.3434 O.3       1 <0>        -0.3216
     27 C22        10.0633    1.9985    0.5704 C.3       1 <0>         0.0260
     28 C23        11.2544    2.7018   -0.0834 C.3       1 <0>         0.0433
     29 H1         11.4884    2.2155   -1.0305 H         1 <0>         0.1536
     30 C24        12.4676    2.6199    0.8453 C.3       1 <0>        -0.0547
     31 C25        13.6715    3.2034    0.1515 C.2       1 <0>        -0.2409
     32 C26        14.5986    2.5259   -0.5438 C.2       1 <0>         0.1057
     33 N4         15.5419    3.3903   -1.0291 N.pl3     1 <0>        -0.5837
     34 H2         16.3108    3.1341   -1.5620 H         1 <0>         0.4274
     35 C27        15.2370    4.6778   -0.6482 C.ar      1 <0>         0.0989
     36 C28        14.0486    4.6181    0.1027 C.ar      1 <0>        -0.1173
     37 C29        13.4923    5.7889    0.6207 C.ar      1 <0>        -0.1159
     38 C30        14.1040    6.9894    0.3923 C.ar      1 <0>        -0.1180
     39 C31        15.2742    7.0542   -0.3512 C.ar      1 <0>        -0.0928
     40 C32        15.8454    5.9098   -0.8639 C.ar      1 <0>        -0.1095
     41 N5         10.9180    4.1109   -0.3264 N.4       1 <0>        -0.6364
     42 H3          0.9258    1.8703   -0.5767 H         1 <0>         0.0942
     43 H4         -0.7698    1.7096   -1.0936 H         1 <0>         0.0685
     44 H5         -0.3871    2.0389    0.6132 H         1 <0>         0.0534
     45 H6          0.2765    0.2647    2.1113 H         1 <0>         0.0623
     46 H7          0.8161   -1.3097    1.4800 H         1 <0>         0.0782
     47 H8          1.7874    0.1509    1.1771 H         1 <0>         0.0793
     48 H9         -2.0140   -0.2614   -0.7382 H         1 <0>         0.1051
     49 H10        -1.3909   -1.6199    0.2285 H         1 <0>         0.1200
     50 H11        -1.4193   -0.0846    2.2506 H         1 <0>         0.1459
     51 H12        -3.8387   -1.0353    0.7250 H         1 <0>         0.1031
     52 H13        -3.3520   -1.3792    2.4172 H         1 <0>         0.1149
     53 H14        -5.3744    0.3771    1.9274 H         1 <0>         0.1186
     54 H15        -4.1663    0.7495    3.2025 H         1 <0>         0.0995
     55 H16        -4.2355    1.7259    0.2947 H         1 <0>         0.1332
     56 H17        -3.9790    2.6890    1.7820 H         1 <0>         0.1371
     57 H18        -1.8478    2.0305    1.9013 H         1 <0>         0.4261
     58 H19         0.7625   -1.7651   -0.9823 H         1 <0>         0.1364
     59 H20         3.1803   -0.4290    0.3877 H         1 <0>         0.1399
     60 H21         5.2268    1.5993   -2.7833 H         1 <0>         0.1374
     61 H22         3.2179    1.4404   -4.1807 H         1 <0>         0.1376
     62 H23         0.5930    0.4938   -4.1859 H         1 <0>         0.4213
     63 H24         6.7354    1.7326   -1.7410 H         1 <0>         0.1490
     64 H25         8.6074    0.8763    2.0079 H         1 <0>         0.1608
     65 H26         4.6750   -0.3069    1.4196 H         1 <0>         0.1630
     66 H27         9.7731    2.5378    1.4721 H         1 <0>         0.0930
     67 H28        10.3426    0.9778    0.8316 H         1 <0>         0.1153
     68 H29        12.2658    3.1821    1.7571 H         1 <0>         0.0999
     69 H30        12.6629    1.5775    1.0968 H         1 <0>         0.1219
     70 H31        14.6000    1.4568   -0.6972 H         1 <0>         0.1790
     71 H32        12.5816    5.7462    1.1996 H         1 <0>         0.1139
     72 H33        13.6733    7.8950    0.7932 H         1 <0>         0.1313
     73 H34        15.7456    8.0105   -0.5238 H         1 <0>         0.1361
     74 H35        16.7555    5.9708   -1.4422 H         1 <0>         0.1304
     75 H36        10.7014    4.5611    0.5503 H         1 <0>         0.4299
     76 H37        11.7035    4.5747   -0.7576 H         1 <0>         0.4398
     77 H38        -1.9963    1.7777    0.2786 H         1 <0>         0.4270
     78 H39        10.1179    4.1649   -0.9389 H         1 <0>         0.4379
@<TRIPOS>BOND
     1    1    2 1
     2    1   42 1
     3    1   43 1
     4    1   44 1
     5    2    3 1
     6    2    4 1
     7    2   10 1
     8    3   45 1
     9    3   46 1
    10    3   47 1
    11    4    5 1
    12    4   48 1
    13    4   49 1
    14    5    9 1
    15    5    6 1
    16    5   50 1
    17    6    7 1
    18    6   51 1
    19    6   52 1
    20    7    8 1
    21    7   53 1
    22    7   54 1
    23    8    9 1
    24    8   55 1
    25    8   56 1
    26    9   57 1
    27    9   77 1
    28   10   18 1
    29   10   11 1
    30   10   58 1
    31   11   16 ar
    32   11   12 ar
    33   12   13 ar
    34   12   59 1
    35   13   14 ar
    36   13   20 1
    37   14   15 ar
    38   14   60 1
    39   15   16 ar
    40   15   61 1
    41   16   17 1
    42   17   18 am
    43   17   62 1
    44   18   19 2
    45   20   25 ar
    46   20   21 ar
    47   21   22 ar
    48   21   63 1
    49   22   23 ar
    50   22   26 1
    51   23   24 ar
    52   23   64 1
    53   24   25 ar
    54   25   65 1
    55   26   27 1
    56   27   28 1
    57   27   66 1
    58   27   67 1
    59   28   29 1
    60   28   30 1
    61   28   41 1
    62   30   31 1
    63   30   68 1
    64   30   69 1
    65   31   36 1
    66   31   32 2
    67   32   33 1
    68   32   70 1
    69   33   34 1
    70   33   35 1
    71   35   40 ar
    72   35   36 ar
    73   36   37 ar
    74   37   38 ar
    75   37   71 1
    76   38   39 ar
    77   38   72 1
    78   39   40 ar
    79   39   73 1
    80   40   74 1
    81   41   75 1
    82   41   76 1
    83   41   78 1
@<TRIPOS>MOLECULE
CHEMBL207139
   78    83     0     0     0
SMALL
USER_CHARGES

@<TRIPOS>ATOM
      1 C1         -0.0533    1.5140   -0.2630 C.3       1 <0>        -0.1878
      2 C2         -0.0027    0.0067   -0.0055 C.3       1 <0>        -0.0502
      3 C3          0.7787   -0.2649    1.2816 C.3       1 <0>        -0.1603
      4 C4         -1.4266   -0.5342    0.1385 C.3       1 <0>        -0.1494
      5 C5         -2.0737    0.0602    1.3911 C.3       1 <0>         0.0228
      6 C6         -3.4386   -0.6130    1.6467 C.3       1 <0>        -0.1374
      7 C7         -4.3216    0.5634    2.1398 C.3       1 <0>        -0.1446
      8 C8         -3.7827    1.7383    1.2861 C.3       1 <0>        -0.0142
      9 N1         -2.3270    1.4988    1.1902 N.4       1 <0>        -0.5217
     10 C9          0.6905   -0.6882   -1.1792 C.3       1 <0>        -0.0706
     11 C10         2.1307   -0.2411   -1.2838 C.ar      1 <0>        -0.1370
     12 C11         2.7136    0.9846   -1.5011 C.ar      1 <0>        -0.0521
     13 C12         4.1035    1.0930   -1.5485 C.ar      1 <0>        -0.0719
     14 C13         4.8889   -0.0456   -1.3747 C.ar      1 <0>        -0.0599
     15 C14         4.2973   -1.2697   -1.1575 C.ar      1 <0>        -0.1290
     16 C15         2.9075   -1.3809   -1.1096 C.ar      1 <0>         0.1630
     17 N2          2.0912   -2.4936   -0.9068 N.am      1 <0>        -0.6565
     18 C16         0.7853   -2.1788   -0.9322 C.2       1 <0>         0.5330
     19 O1         -0.1433   -2.9450   -0.7849 O.2       1 <0>        -0.4844
     20 C17         4.7418    2.4116   -1.7829 C.ar      1 <0>        -0.0430
     21 C18         6.1330    2.5264   -1.8373 C.ar      1 <0>        -0.0961
     22 C19         6.6811    3.7831   -2.0592 C.ar      1 <0>         0.0761
     23 C20         5.8347    4.8721   -2.2178 C.ar      1 <0>         0.0247
     24 N3          4.5255    4.7275   -2.1601 N.ar      1 <0>        -0.4372
     25 C21         3.9628    3.5536   -1.9579 C.ar      1 <0>         0.0818
     26 O2          8.0292    3.9449   -2.1198 O.3       1 <0>        -0.3212
     27 C22         8.5139    5.2691   -2.3512 C.3       1 <0>         0.0260
     28 C23        10.0434    5.2533   -2.3870 C.3       1 <0>         0.0434
     29 H1         10.4238    4.8055   -1.4689 H         1 <0>         0.1532
     30 C24        10.5655    6.6862   -2.5099 C.3       1 <0>        -0.0547
     31 C25        12.0699    6.6820   -2.4217 C.2       1 <0>        -0.2407
     32 C26        12.8056    6.8817   -1.3168 C.2       1 <0>         0.1051
     33 N4         14.1371    6.8051   -1.6226 N.pl3     1 <0>        -0.5838
     34 H2         14.8619    6.9157   -0.9875 H         1 <0>         0.4272
     35 C27        14.2948    6.5476   -2.9660 C.ar      1 <0>         0.0989
     36 C28        13.0068    6.4529   -3.5244 C.ar      1 <0>        -0.1174
     37 C29        12.8559    6.1889   -4.8867 C.ar      1 <0>        -0.1159
     38 C30        13.9619    6.0199   -5.6716 C.ar      1 <0>        -0.1176
     39 C31        15.2345    6.1083   -5.1249 C.ar      1 <0>        -0.0923
     40 C32        15.4064    6.3773   -3.7844 C.ar      1 <0>        -0.1098
     41 N5         10.4982    4.4658   -3.5407 N.4       1 <0>        -0.6365
     42 H3          0.9458    1.8746   -0.5075 H         1 <0>         0.0984
     43 H4         -0.7269    1.7180   -1.0954 H         1 <0>         0.0789
     44 H5         -0.4150    2.0232    0.6303 H         1 <0>         0.0518
     45 H6          0.2848    0.2302    2.1177 H         1 <0>         0.0623
     46 H7          0.8148   -1.3387    1.4650 H         1 <0>         0.0673
     47 H8          1.7931    0.1205    1.1789 H         1 <0>         0.0764
     48 H9         -2.0111   -0.2571   -0.7388 H         1 <0>         0.0951
     49 H10        -1.3956   -1.6203    0.2262 H         1 <0>         0.1343
     50 H11        -1.4193   -0.0846    2.2506 H         1 <0>         0.1439
     51 H12        -3.8387   -1.0353    0.7250 H         1 <0>         0.1031
     52 H13        -3.3520   -1.3792    2.4172 H         1 <0>         0.1141
     53 H14        -5.3744    0.3771    1.9274 H         1 <0>         0.1186
     54 H15        -4.1663    0.7495    3.2025 H         1 <0>         0.0991
     55 H16        -4.2355    1.7259    0.2947 H         1 <0>         0.1337
     56 H17        -3.9790    2.6890    1.7820 H         1 <0>         0.1369
     57 H18        -1.8478    2.0305    1.9013 H         1 <0>         0.4266
     58 H19         0.1578   -0.4882   -2.1089 H         1 <0>         0.1333
     59 H20         2.0971    1.8612   -1.6350 H         1 <0>         0.1379
     60 H21         5.9654    0.0327   -1.4108 H         1 <0>         0.1375
     61 H22         4.9118   -2.1477   -1.0240 H         1 <0>         0.1382
     62 H23         2.4278   -3.3920   -0.7641 H         1 <0>         0.4222
     63 H24         6.7659    1.6606   -1.7099 H         1 <0>         0.1494
     64 H25         6.2548    5.8519   -2.3906 H         1 <0>         0.1608
     65 H26         2.8861    3.4764   -1.9224 H         1 <0>         0.1615
     66 H27         8.1320    5.6344   -3.3045 H         1 <0>         0.0934
     67 H28         8.1760    5.9251   -1.5490 H         1 <0>         0.1148
     68 H29        10.2589    7.1036   -3.4690 H         1 <0>         0.1000
     69 H30        10.1559    7.2927   -1.7021 H         1 <0>         0.1215
     70 H31        12.4057    7.0747   -0.3323 H         1 <0>         0.1786
     71 H32        11.8687    6.1180   -5.3189 H         1 <0>         0.1141
     72 H33        13.8446    5.8156   -6.7256 H         1 <0>         0.1317
     73 H34        16.0988    5.9717   -5.7578 H         1 <0>         0.1363
     74 H35        16.4008    6.4429   -3.3682 H         1 <0>         0.1304
     75 H36        10.1461    4.8803   -4.3906 H         1 <0>         0.4303
     76 H37        11.5068    4.4554   -3.5643 H         1 <0>         0.4399
     77 H38        -1.9963    1.7777    0.2786 H         1 <0>         0.4274
     78 H39        10.1539    3.5209   -3.4597 H         1 <0>         0.4382
@<TRIPOS>BOND
     1    1    2 1
     2    1   42 1
     3    1   43 1
     4    1   44 1
     5    2    3 1
     6    2    4 1
     7    2   10 1
     8    3   45 1
     9    3   46 1
    10    3   47 1
    11    4    5 1
    12    4   48 1
    13    4   49 1
    14    5    9 1
    15    5    6 1
    16    5   50 1
    17    6    7 1
    18    6   51 1
    19    6   52 1
    20    7    8 1
    21    7   53 1
    22    7   54 1
    23    8    9 1
    24    8   55 1
    25    8   56 1
    26    9   57 1
    27    9   77 1
    28   10   18 1
    29   10   11 1
    30   10   58 1
    31   11   16 ar
    32   11   12 ar
    33   12   13 ar
    34   12   59 1
    35   13   14 ar
    36   13   20 1
    37   14   15 ar
    38   14   60 1
    39   15   16 ar
    40   15   61 1
    41   16   17 1
    42   17   18 am
    43   17   62 1
    44   18   19 2
    45   20   25 ar
    46   20   21 ar
    47   21   22 ar
    48   21   63 1
    49   22   23 ar
    50   22   26 1
    51   23   24 ar
    52   23   64 1
    53   24   25 ar
    54   25   65 1
    55   26   27 1
    56   27   28 1
    57   27   66 1
    58   27   67 1
    59   28   29 1
    60   28   30 1
    61   28   41 1
    62   30   31 1
    63   30   68 1
    64   30   69 1
    65   31   36 1
    66   31   32 2
    67   32   33 1
    68   32   70 1
    69   33   34 1
    70   33   35 1
    71   35   40 ar
    72   35   36 ar
    73   36   37 ar
    74   37   38 ar
    75   37   71 1
    76   38   39 ar
    77   38   72 1
    78   39   40 ar
    79   39   73 1
    80   40   74 1
    81   41   75 1
    82   41   76 1
    83   41   78 1
@<TRIPOS>MOLECULE
CHEMBL207139
   78    83     0     0     0
SMALL
USER_CHARGES

@<TRIPOS>ATOM
      1 C1          0.3985    1.4760    0.0323 C.3       1 <0>        -0.1498
      2 C2         -0.0216    0.0081   -0.0656 C.3       1 <0>        -0.0502
      3 C3          0.4857   -0.7506    1.1624 C.3       1 <0>        -0.1615
      4 C4         -1.5477   -0.0827   -0.1267 C.3       1 <0>        -0.1495
      5 C5         -1.9753   -1.5490   -0.0364 C.3       1 <0>         0.0227
      6 C6         -3.5203   -1.6605   -0.0270 C.3       1 <0>        -0.1377
      7 C7         -3.7338   -3.1017   -0.5601 C.3       1 <0>        -0.1419
      8 C8         -2.5993   -3.2614   -1.5940 C.3       1 <0>        -0.0164
      9 N1         -1.5511   -2.2843   -1.2468 N.4       1 <0>        -0.5231
     10 C9          0.5772   -0.6104   -1.3305 C.3       1 <0>        -0.0934
     11 C10         2.0790   -0.4389   -1.3442 C.ar      1 <0>        -0.1348
     12 C11         3.0756   -0.8769   -0.5051 C.ar      1 <0>        -0.0483
     13 C12         4.4048   -0.5541   -0.7791 C.ar      1 <0>        -0.0622
     14 C13         4.7092    0.2112   -1.9039 C.ar      1 <0>        -0.0585
     15 C14         3.7050    0.6461   -2.7394 C.ar      1 <0>        -0.1222
     16 C15         2.3750    0.3247   -2.4677 C.ar      1 <0>         0.1538
     17 N2          1.2039    0.6450   -3.1543 N.am      1 <0>        -0.6437
     18 C16         0.1103    0.1395   -2.5599 C.2       1 <0>         0.5255
     19 O1         -1.0360    0.2612   -2.9373 O.2       1 <0>        -0.4963
     20 C17         5.4874   -1.0219    0.1209 C.ar      1 <0>        -0.0492
     21 C18         6.8201   -0.6974   -0.1444 C.ar      1 <0>        -0.0938
     22 C19         7.7959   -1.1598    0.7289 C.ar      1 <0>         0.0755
     23 C20         7.4166   -1.9217    1.8257 C.ar      1 <0>         0.0284
     24 N3          6.1488   -2.2095    2.0456 N.ar      1 <0>        -0.4364
     25 C21         5.1901   -1.7868    1.2471 C.ar      1 <0>         0.0854
     26 O2          9.1061   -0.8703    0.5123 O.3       1 <0>        -0.3212
     27 C22        10.0485   -1.3828    1.4564 C.3       1 <0>         0.0257
     28 C23        11.4607   -0.9573    1.0497 C.3       1 <0>         0.0434
     29 H1         11.6551   -1.2751    0.0253 H         1 <0>         0.1534
     30 C24        12.4794   -1.6081    1.9876 C.3       1 <0>        -0.0548
     31 C25        13.8740   -1.2890    1.5138 C.2       1 <0>        -0.2409
     32 C26        14.6418   -2.0522    0.7201 C.2       1 <0>         0.1054
     33 N4         15.8450   -1.4375    0.5039 N.pl3     1 <0>        -0.5837
     34 H2         16.5649   -1.7967   -0.0380 H         1 <0>         0.4273
     35 C27        15.8818   -0.2331    1.1702 C.ar      1 <0>         0.0988
     36 C28        14.6463   -0.0843    1.8269 C.ar      1 <0>        -0.1174
     37 C29        14.3942    1.0599    2.5858 C.ar      1 <0>        -0.1160
     38 C30        15.3490    2.0327    2.6841 C.ar      1 <0>        -0.1176
     39 C31        16.5677    1.8926    2.0350 C.ar      1 <0>        -0.0925
     40 C32        16.8409    0.7672    1.2883 C.ar      1 <0>        -0.1097
     41 N5         11.5767    0.5043    1.1392 N.4       1 <0>        -0.6365
     42 H3          1.4857    1.5407    0.0758 H         1 <0>         0.0713
     43 H4          0.0370    2.0165   -0.8425 H         1 <0>         0.0592
     44 H5         -0.0281    1.9167    0.9334 H         1 <0>         0.0776
     45 H6         -0.0426   -0.4009    2.0493 H         1 <0>         0.0827
     46 H7          0.3067   -1.8176    1.0298 H         1 <0>         0.0558
     47 H8          1.5545   -0.5737    1.2828 H         1 <0>         0.0785
     48 H9         -1.9783    0.4733    0.7060 H         1 <0>         0.1236
     49 H10        -1.8995    0.3411   -1.0673 H         1 <0>         0.1115
     50 H11        -1.5543   -2.0120    0.8560 H         1 <0>         0.1484
     51 H12        -3.9132   -1.5562    0.9844 H         1 <0>         0.1201
     52 H13        -3.9689   -0.9262   -0.6961 H         1 <0>         0.1022
     53 H14        -3.6276   -3.8298    0.2440 H         1 <0>         0.1017
     54 H15        -4.7082   -3.1948   -1.0397 H         1 <0>         0.1154
     55 H16        -2.1943   -4.2722   -1.5469 H         1 <0>         0.1349
     56 H17        -2.9788   -3.0579   -2.5954 H         1 <0>         0.1331
     57 H18        -1.4239   -1.6370   -2.0102 H         1 <0>         0.4273
     58 H19         0.3103   -1.6648   -1.4020 H         1 <0>         0.0960
     59 H20         2.8303   -1.4690    0.3642 H         1 <0>         0.1406
     60 H21         5.7366    0.4643   -2.1205 H         1 <0>         0.1405
     61 H22         3.9480    1.2389   -3.6088 H         1 <0>         0.1409
     62 H23         1.1817    1.1727   -3.9679 H         1 <0>         0.4272
     63 H24         7.0845   -0.1029   -1.0064 H         1 <0>         0.1497
     64 H25         8.1708   -2.2841    2.5085 H         1 <0>         0.1618
     65 H26         4.1631   -2.0401    1.4649 H         1 <0>         0.1625
     66 H27         9.8214   -0.9887    2.4469 H         1 <0>         0.0936
     67 H28         9.9883   -2.4710    1.4757 H         1 <0>         0.1153
     68 H29        12.3417   -1.2223    2.9976 H         1 <0>         0.1001
     69 H30        12.3343   -2.6884    1.9883 H         1 <0>         0.1217
     70 H31        14.3528   -3.0097    0.3127 H         1 <0>         0.1787
     71 H32        13.4479    1.1761    3.0931 H         1 <0>         0.1141
     72 H33        15.1535    2.9178    3.2714 H         1 <0>         0.1316
     73 H34        17.3120    2.6704    2.1216 H         1 <0>         0.1363
     74 H35        17.7918    0.6680    0.7859 H         1 <0>         0.1304
     75 H36        11.3967    0.7985    2.0875 H         1 <0>         0.4303
     76 H37        12.5080    0.7849    0.8710 H         1 <0>         0.4400
     77 H38        -0.6840   -2.7670   -1.0644 H         1 <0>         0.4211
     78 H39        10.9048    0.9335    0.5207 H         1 <0>         0.4379
@<TRIPOS>BOND
     1    1    2 1
     2    1   42 1
     3    1   43 1
     4    1   44 1
     5    2    3 1
     6    2    4 1
     7    2   10 1
     8    3   45 1
     9    3   46 1
    10    3   47 1
    11    4    5 1
    12    4   48 1
    13    4   49 1
    14    5    9 1
    15    5    6 1
    16    5   50 1
    17    6    7 1
    18    6   51 1
    19    6   52 1
    20    7    8 1
    21    7   53 1
    22    7   54 1
    23    8    9 1
    24    8   55 1
    25    8   56 1
    26    9   57 1
    27    9   77 1
    28   10   18 1
    29   10   11 1
    30   10   58 1
    31   11   16 ar
    32   11   12 ar
    33   12   13 ar
    34   12   59 1
    35   13   14 ar
    36   13   20 1
    37   14   15 ar
    38   14   60 1
    39   15   16 ar
    40   15   61 1
    41   16   17 1
    42   17   18 am
    43   17   62 1
    44   18   19 2
    45   20   25 ar
    46   20   21 ar
    47   21   22 ar
    48   21   63 1
    49   22   23 ar
    50   22   26 1
    51   23   24 ar
    52   23   64 1
    53   24   25 ar
    54   25   65 1
    55   26   27 1
    56   27   28 1
    57   27   66 1
    58   27   67 1
    59   28   29 1
    60   28   30 1
    61   28   41 1
    62   30   31 1
    63   30   68 1
    64   30   69 1
    65   31   36 1
    66   31   32 2
    67   32   33 1
    68   32   70 1
    69   33   34 1
    70   33   35 1
    71   35   40 ar
    72   35   36 ar
    73   36   37 ar
    74   37   38 ar
    75   37   71 1
    76   38   39 ar
    77   38   72 1
    78   39   40 ar
    79   39   73 1
    80   40   74 1
    81   41   75 1
    82   41   76 1
    83   41   78 1
@<TRIPOS>MOLECULE
CHEMBL207139
   78    83     0     0     0
SMALL
USER_CHARGES

@<TRIPOS>ATOM
      1 C1         -0.4075    1.6170   -0.1550 C.3       1 <0>        -0.1650
      2 C2         -0.1146    0.1176   -0.0718 C.3       1 <0>        -0.0501
      3 C3          0.6762   -0.1775    1.2043 C.3       1 <0>        -0.1771
      4 C4         -1.4326   -0.6589   -0.0461 C.3       1 <0>        -0.1410
      5 C5         -2.3210   -0.1187    1.0763 C.3       1 <0>         0.0244
      6 C6         -3.6831   -0.8562    1.0883 C.3       1 <0>        -0.1386
      7 C7         -4.1318   -0.6618    2.5607 C.3       1 <0>        -0.1432
      8 C8         -2.8031   -0.7374    3.3419 C.3       1 <0>        -0.0159
      9 N1         -1.7205   -0.4131    2.3949 N.4       1 <0>        -0.5179
     10 C9          0.7057   -0.3101   -1.2905 C.3       1 <0>        -0.0705
     11 C10         2.0545    0.3724   -1.2872 C.ar      1 <0>        -0.1364
     12 C11         2.4319    1.6930   -1.3387 C.ar      1 <0>        -0.0494
     13 C12         3.7857    2.0288   -1.3198 C.ar      1 <0>        -0.0706
     14 C13         4.7442    1.0189   -1.2488 C.ar      1 <0>        -0.0607
     15 C14         4.3579   -0.3015   -1.1976 C.ar      1 <0>        -0.1299
     16 C15         3.0047   -0.6401   -1.2163 C.ar      1 <0>         0.1587
     17 N2          2.3787   -1.8858   -1.1751 N.am      1 <0>        -0.6568
     18 C16         1.0396   -1.7847   -1.2141 C.2       1 <0>         0.5305
     19 O1          0.2470   -2.7025   -1.1923 O.2       1 <0>        -0.4874
     20 C17         4.2028    3.4514   -1.3754 C.ar      1 <0>        -0.0448
     21 C18         5.5570    3.7945   -1.3626 C.ar      1 <0>        -0.0959
     22 C19         5.8950    5.1404   -1.4164 C.ar      1 <0>         0.0748
     23 C20         4.8842    6.0900   -1.4804 C.ar      1 <0>         0.0256
     24 N3          3.6158    5.7306   -1.4902 N.ar      1 <0>        -0.4367
     25 C21         3.2501    4.4658   -1.4469 C.ar      1 <0>         0.0837
     26 O2          7.1991    5.5233   -1.4060 O.3       1 <0>        -0.3216
     27 C22         7.4638    6.9264   -1.4639 C.3       1 <0>         0.0259
     28 C23         8.9755    7.1615   -1.4425 C.3       1 <0>         0.0435
     29 H1          9.4067    6.6736   -0.5684 H         1 <0>         0.1531
     30 C24         9.2570    8.6640   -1.3786 C.3       1 <0>        -0.0549
     31 C25        10.7397    8.8915   -1.2338 C.2       1 <0>        -0.2404
     32 C26        11.4113    9.0726   -0.0857 C.2       1 <0>         0.1049
     33 N4         12.7429    9.2488   -0.3469 N.pl3     1 <0>        -0.5839
     34 H2         13.4275    9.3973    0.3241 H         1 <0>         0.4271
     35 C27        12.9664    9.1837   -1.7040 C.ar      1 <0>         0.0988
     36 C28        11.7223    8.9507   -2.3187 C.ar      1 <0>        -0.1175
     37 C29        11.6429    8.8318   -3.7072 C.ar      1 <0>        -0.1158
     38 C30        12.7763    8.9389   -4.4632 C.ar      1 <0>        -0.1176
     39 C31        14.0064    9.1645   -3.8615 C.ar      1 <0>        -0.0923
     40 C32        14.1062    9.2944   -2.4933 C.ar      1 <0>        -0.1099
     41 N5          9.5754    6.6023   -2.6612 N.4       1 <0>        -0.6365
     42 H3          0.5315    2.1702   -0.1733 H         1 <0>         0.0793
     43 H4         -0.9708    1.8273   -1.0641 H         1 <0>         0.0781
     44 H5         -0.9918    1.9218    0.7132 H         1 <0>         0.0607
     45 H6          0.1815    0.2914    2.0549 H         1 <0>         0.0479
     46 H7          0.7244   -1.2551    1.3608 H         1 <0>         0.0679
     47 H8          1.6860    0.2209    1.1063 H         1 <0>         0.0911
     48 H9         -1.9427   -0.5405   -1.0021 H         1 <0>         0.1200
     49 H10        -1.2286   -1.7153    0.1285 H         1 <0>         0.1055
     50 H11        -2.4698    0.9547    0.9583 H         1 <0>         0.1477
     51 H12        -4.3870   -0.3876    0.4005 H         1 <0>         0.1190
     52 H13        -3.5567   -1.9135    0.8551 H         1 <0>         0.1015
     53 H14        -4.6027    0.3121    2.6946 H         1 <0>         0.1005
     54 H15        -4.8052   -1.4622    2.8673 H         1 <0>         0.1144
     55 H16        -2.8110   -0.0146    4.1577 H         1 <0>         0.1337
     56 H17        -2.6616   -1.7436    3.7364 H         1 <0>         0.1326
     57 H18        -1.0931   -1.1992    2.3143 H         1 <0>         0.4268
     58 H19         0.1651   -0.0881   -2.2106 H         1 <0>         0.1359
     59 H20         1.6823    2.4686   -1.3939 H         1 <0>         0.1397
     60 H21         5.7937    1.2734   -1.2342 H         1 <0>         0.1373
     61 H22         5.1058   -1.0787   -1.1430 H         1 <0>         0.1375
     62 H23         2.8558   -2.7289   -1.1244 H         1 <0>         0.4213
     63 H24         6.3211    3.0329   -1.3119 H         1 <0>         0.1490
     64 H25         5.1407    7.1383   -1.5224 H         1 <0>         0.1608
     65 H26         2.2003    4.2124   -1.4620 H         1 <0>         0.1629
     66 H27         7.0452    7.3375   -2.3825 H         1 <0>         0.0934
     67 H28         7.0074    7.4180   -0.6048 H         1 <0>         0.1148
     68 H29         8.9043    9.1390   -2.2941 H         1 <0>         0.1001
     69 H30         8.7380    9.0949   -0.5225 H         1 <0>         0.1215
     70 H31        10.9665    9.0787    0.8984 H         1 <0>         0.1786
     71 H32        10.6891    8.6555   -4.1824 H         1 <0>         0.1142
     72 H33        12.7143    8.8468   -5.5375 H         1 <0>         0.1317
     73 H34        14.8933    9.2461   -4.4723 H         1 <0>         0.1363
     74 H35        15.0682    9.4687   -2.0343 H         1 <0>         0.1303
     75 H36         9.1762    7.0539   -3.4704 H         1 <0>         0.4304
     76 H37        10.5723    6.7573   -2.6471 H         1 <0>         0.4398
     77 H38        -1.2117    0.3936    2.7241 H         1 <0>         0.4264
     78 H39         9.3897    5.6114   -2.7033 H         1 <0>         0.4381
@<TRIPOS>BOND
     1    1    2 1
     2    1   42 1
     3    1   43 1
     4    1   44 1
     5    2    3 1
     6    2    4 1
     7    2   10 1
     8    3   45 1
     9    3   46 1
    10    3   47 1
    11    4    5 1
    12    4   48 1
    13    4   49 1
    14    5    9 1
    15    5    6 1
    16    5   50 1
    17    6    7 1
    18    6   51 1
    19    6   52 1
    20    7    8 1
    21    7   53 1
    22    7   54 1
    23    8    9 1
    24    8   55 1
    25    8   56 1
    26    9   57 1
    27    9   77 1
    28   10   18 1
    29   10   11 1
    30   10   58 1
    31   11   16 ar
    32   11   12 ar
    33   12   13 ar
    34   12   59 1
    35   13   14 ar
    36   13   20 1
    37   14   15 ar
    38   14   60 1
    39   15   16 ar
    40   15   61 1
    41   16   17 1
    42   17   18 am
    43   17   62 1
    44   18   19 2
    45   20   25 ar
    46   20   21 ar
    47   21   22 ar
    48   21   63 1
    49   22   23 ar
    50   22   26 1
    51   23   24 ar
    52   23   64 1
    53   24   25 ar
    54   25   65 1
    55   26   27 1
    56   27   28 1
    57   27   66 1
    58   27   67 1
    59   28   29 1
    60   28   30 1
    61   28   41 1
    62   30   31 1
    63   30   68 1
    64   30   69 1
    65   31   36 1
    66   31   32 2
    67   32   33 1
    68   32   70 1
    69   33   34 1
    70   33   35 1
    71   35   40 ar
    72   35   36 ar
    73   36   37 ar
    74   37   38 ar
    75   37   71 1
    76   38   39 ar
    77   38   72 1
    78   39   40 ar
    79   39   73 1
    80   40   74 1
    81   41   75 1
    82   41   76 1
    83   41   78 1
@<TRIPOS>MOLECULE
CHEMBL260670
   70    76     0     0     0
SMALL
USER_CHARGES

@<TRIPOS>ATOM
      1 C1         -0.0167    1.3791    0.0096 C.ar      1 <0>        -0.1096
      2 C2          1.1686    2.0924    0.0021 C.ar      1 <0>        -0.1121
      3 C3          2.3774    1.4269   -0.0129 C.ar      1 <0>        -0.1036
      4 C4          2.4026    0.0330   -0.0206 C.ar      1 <0>        -0.0493
      5 C5          1.2049   -0.6804   -0.0130 C.ar      1 <0>        -0.0992
      6 C6          0.0021   -0.0041    0.0020 C.ar      1 <0>        -0.1215
      7 C7          3.6978   -0.6877   -0.0373 C.ar      1 <0>        -0.0975
      8 C8          4.6763   -0.3476   -0.9576 C.ar      1 <0>        -0.0226
      9 C9          5.8866   -1.0617   -0.9306 C.ar      1 <0>        -0.1488
     10 C10         6.9249   -0.7709   -1.8343 C.ar      1 <0>        -0.0422
     11 C11         8.0755   -1.5042   -1.7522 C.ar      1 <0>        -0.1697
     12 C12         8.1910   -2.5057   -0.7916 C.ar      1 <0>         0.1689
     13 N1          7.2207   -2.7734    0.0487 N.ar      1 <0>        -0.4654
     14 C13         6.0680   -2.0947    0.0240 C.ar      1 <0>         0.3110
     15 N2          5.0919   -2.3827    0.8895 N.ar      1 <0>        -0.4469
     16 C14         3.9497   -1.7249    0.8891 C.ar      1 <0>         0.2185
     17 C15         2.9058   -2.0841    1.8768 C.ar      1 <0>        -0.0129
     18 C16         2.0780   -1.0970    2.4110 C.ar      1 <0>        -0.0803
     19 C17         1.1071   -1.4378    3.3303 C.ar      1 <0>        -0.1008
     20 C18         0.9539   -2.7557    3.7223 C.ar      1 <0>        -0.1490
     21 C19         1.7720   -3.7394    3.1960 C.ar      1 <0>        -0.0966
     22 C20         2.7430   -3.4117    2.2720 C.ar      1 <0>        -0.0724
     23 C21        -0.1081   -3.1211    4.7271 C.3       1 <0>         0.0432
     24 N3         -1.3578   -3.4409    4.0243 N.4       1 <0>        -0.3835
     25 C22        -1.8543   -2.2403    3.3413 C.3       1 <0>        -0.0114
     26 C23        -3.1119   -2.5872    2.5415 C.3       1 <0>        -0.1378
     27 C24        -4.1873   -3.1153    3.4953 C.3       1 <0>         0.0021
     28 C25        -3.6322   -4.3226    4.2566 C.3       1 <0>        -0.1401
     29 C26        -2.3554   -3.9114    4.9928 C.3       1 <0>        -0.0033
     30 C27        -5.4009   -3.5323    2.7052 C.2       1 <0>         0.2199
     31 N4         -6.6203   -3.0206    2.8397 N.2       1 <0>        -0.5189
     32 C28        -7.4457   -3.6082    1.9978 C.2       1 <0>         0.3517
     33 N5         -6.7396   -4.5261    1.2990 N.pl3     1 <0>        -0.4477
     34 H1         -7.0764   -5.1156    0.6062 H         1 <0>         0.4543
     35 N6         -5.4201   -4.4514    1.7740 N.2       1 <0>        -0.3000
     36 C29        -8.8888   -3.3166    1.8445 C.ar      1 <0>         0.1605
     37 C30        -9.4836   -2.3341    2.6351 C.ar      1 <0>        -0.1103
     38 C31       -10.8339   -2.0726    2.4798 C.ar      1 <0>        -0.0738
     39 C32       -11.5461   -2.8024    1.5385 C.ar      1 <0>        -0.1435
     40 C33       -10.8922   -3.7629    0.7880 C.ar      1 <0>         0.1095
     41 N7         -9.6052   -3.9889    0.9517 N.ar      1 <0>        -0.4750
     42 H2         -0.9603    1.9042    0.0260 H         1 <0>         0.1262
     43 H3          1.1478    3.1722    0.0077 H         1 <0>         0.1299
     44 H4          3.3021    1.9847   -0.0191 H         1 <0>         0.1275
     45 H5          1.2183   -1.7603   -0.0193 H         1 <0>         0.1205
     46 H6         -0.9264   -0.5557    0.0082 H         1 <0>         0.1225
     47 H7          4.5135    0.4431   -1.6750 H         1 <0>         0.1508
     48 H8          6.8159    0.0098   -2.5725 H         1 <0>         0.1479
     49 H9          8.8924   -1.3077   -2.4307 H         1 <0>         0.1508
     50 H10         9.1052   -3.0782   -0.7375 H         1 <0>         0.1737
     51 H11         2.1969   -0.0678    2.1059 H         1 <0>         0.1430
     52 H12         0.4657   -0.6742    3.7449 H         1 <0>         0.1353
     53 H13         1.6480   -4.7664    3.5061 H         1 <0>         0.1359
     54 H14         3.3781   -4.1811    1.8584 H         1 <0>         0.1425
     55 H15         0.2181   -3.9884    5.3013 H         1 <0>         0.1392
     56 H16        -0.2750   -2.2810    5.4012 H         1 <0>         0.1376
     57 H17        -2.0935   -1.4754    4.0800 H         1 <0>         0.1331
     58 H18        -1.0866   -1.8638    2.6652 H         1 <0>         0.1366
     59 H19        -3.4799   -1.6941    2.0366 H         1 <0>         0.1151
     60 H20        -2.8736   -3.3520    1.8023 H         1 <0>         0.0960
     61 H21        -4.4626   -2.3334    4.2030 H         1 <0>         0.1175
     62 H22        -4.3723   -4.6700    4.9775 H         1 <0>         0.1163
     63 H23        -3.4048   -5.1234    3.5529 H         1 <0>         0.0966
     64 H24        -1.9577   -4.7687    5.5360 H         1 <0>         0.1360
     65 H25        -2.5839   -3.1108    5.6963 H         1 <0>         0.1338
     66 H26        -8.8991   -1.7851    3.3586 H         1 <0>         0.1515
     67 H27       -11.3224   -1.3176    3.0780 H         1 <0>         0.1489
     68 H28       -12.6010   -2.6223    1.3936 H         1 <0>         0.1481
     69 H29       -11.4440   -4.3326    0.0549 H         1 <0>         0.1699
     70 H30        -1.1838   -4.1650    3.3435 H         1 <0>         0.4236
@<TRIPOS>BOND
     1    1    6 ar
     2    1    2 ar
     3    1   42 1
     4    2    3 ar
     5    2   43 1
     6    3    4 ar
     7    3   44 1
     8    4    5 ar
     9    4    7 1
    10    5    6 ar
    11    5   45 1
    12    6   46 1
    13    7   16 ar
    14    7    8 ar
    15    8    9 ar
    16    8   47 1
    17    9   14 ar
    18    9   10 ar
    19   10   11 ar
    20   10   48 1
    21   11   12 ar
    22   11   49 1
    23   12   13 ar
    24   12   50 1
    25   13   14 ar
    26   14   15 ar
    27   15   16 ar
    28   16   17 1
    29   17   22 ar
    30   17   18 ar
    31   18   19 ar
    32   18   51 1
    33   19   20 ar
    34   19   52 1
    35   20   21 ar
    36   20   23 1
    37   21   22 ar
    38   21   53 1
    39   22   54 1
    40   23   24 1
    41   23   55 1
    42   23   56 1
    43   24   29 1
    44   24   25 1
    45   24   70 1
    46   25   26 1
    47   25   57 1
    48   25   58 1
    49   26   27 1
    50   26   59 1
    51   26   60 1
    52   27   28 1
    53   27   30 1
    54   27   61 1
    55   28   29 1
    56   28   62 1
    57   28   63 1
    58   29   64 1
    59   29   65 1
    60   30   35 2
    61   30   31 1
    62   31   32 2
    63   32   33 1
    64   32   36 1
    65   33   34 1
    66   33   35 1
    67   36   41 ar
    68   36   37 ar
    69   37   38 ar
    70   37   66 1
    71   38   39 ar
    72   38   67 1
    73   39   40 ar
    74   39   68 1
    75   40   41 ar
    76   40   69 1
@<TRIPOS>MOLECULE
CHEMBL260670
   70    76     0     0     0
SMALL
USER_CHARGES

@<TRIPOS>ATOM
      1 C1         -0.0167    1.3791    0.0096 C.ar      1 <0>        -0.1089
      2 C2          1.1686    2.0924    0.0021 C.ar      1 <0>        -0.1115
      3 C3          2.3774    1.4269   -0.0129 C.ar      1 <0>        -0.1033
      4 C4          2.4026    0.0330   -0.0206 C.ar      1 <0>        -0.0497
      5 C5          1.2049   -0.6804   -0.0130 C.ar      1 <0>        -0.1002
      6 C6          0.0021   -0.0041    0.0020 C.ar      1 <0>        -0.1219
      7 C7          3.6978   -0.6877   -0.0373 C.ar      1 <0>        -0.0976
      8 C8          4.6763   -0.3476   -0.9576 C.ar      1 <0>        -0.0223
      9 C9          5.8866   -1.0617   -0.9306 C.ar      1 <0>        -0.1485
     10 C10         6.9249   -0.7709   -1.8343 C.ar      1 <0>        -0.0422
     11 C11         8.0755   -1.5042   -1.7522 C.ar      1 <0>        -0.1692
     12 C12         8.1910   -2.5057   -0.7916 C.ar      1 <0>         0.1692
     13 N1          7.2207   -2.7734    0.0487 N.ar      1 <0>        -0.4656
     14 C13         6.0680   -2.0947    0.0240 C.ar      1 <0>         0.3108
     15 N2          5.0919   -2.3827    0.8895 N.ar      1 <0>        -0.4467
     16 C14         3.9497   -1.7249    0.8891 C.ar      1 <0>         0.2172
     17 C15         2.9058   -2.0841    1.8768 C.ar      1 <0>        -0.0110
     18 C16         2.0780   -1.0970    2.4110 C.ar      1 <0>        -0.0798
     19 C17         1.1071   -1.4378    3.3303 C.ar      1 <0>        -0.1005
     20 C18         0.9539   -2.7557    3.7223 C.ar      1 <0>        -0.1512
     21 C19         1.7720   -3.7394    3.1960 C.ar      1 <0>        -0.0968
     22 C20         2.7430   -3.4117    2.2720 C.ar      1 <0>        -0.0729
     23 C21        -0.1081   -3.1211    4.7271 C.3       1 <0>         0.0435
     24 N3         -1.3578   -3.4409    4.0243 N.4       1 <0>        -0.3845
     25 C22        -1.8543   -2.2403    3.3413 C.3       1 <0>        -0.0124
     26 C23        -3.1119   -2.5872    2.5415 C.3       1 <0>        -0.1383
     27 C24        -4.1873   -3.1153    3.4953 C.3       1 <0>        -0.0161
     28 C25        -3.6322   -4.3226    4.2566 C.3       1 <0>        -0.1490
     29 C26        -2.3554   -3.9114    4.9928 C.3       1 <0>        -0.0022
     30 C27        -5.4009   -3.5323    2.7052 C.2       1 <0>         0.2714
     31 N4         -6.4546   -2.7950    2.4751 N.2       1 <0>        -0.4885
     32 C28        -7.3384   -3.4836    1.7401 C.2       1 <0>         0.2881
     33 N5         -6.8443   -4.6776    1.4961 N.2       1 <0>        -0.2781
     34 H1         -4.9642   -5.4732    2.1089 H         1 <0>         0.4405
     35 N6         -5.5825   -4.7258    2.1108 N.pl3     1 <0>        -0.4753
     36 C29        -8.6562   -2.9821    1.2784 C.ar      1 <0>         0.1849
     37 C30        -9.4835   -3.8091    0.5216 C.ar      1 <0>        -0.1316
     38 C31       -10.7101   -3.3276    0.0984 C.ar      1 <0>        -0.0745
     39 C32       -11.0695   -2.0331    0.4466 C.ar      1 <0>        -0.1510
     40 C33       -10.1994   -1.2673    1.2001 C.ar      1 <0>         0.1034
     41 N7         -9.0393   -1.7521    1.5943 N.ar      1 <0>        -0.4470
     42 H2         -0.9603    1.9042    0.0260 H         1 <0>         0.1270
     43 H3          1.1478    3.1722    0.0077 H         1 <0>         0.1303
     44 H4          3.3021    1.9847   -0.0191 H         1 <0>         0.1276
     45 H5          1.2183   -1.7603   -0.0193 H         1 <0>         0.1198
     46 H6         -0.9264   -0.5557    0.0082 H         1 <0>         0.1222
     47 H7          4.5135    0.4431   -1.6750 H         1 <0>         0.1510
     48 H8          6.8159    0.0098   -2.5725 H         1 <0>         0.1482
     49 H9          8.8924   -1.3077   -2.4307 H         1 <0>         0.1511
     50 H10         9.1052   -3.0782   -0.7375 H         1 <0>         0.1739
     51 H11         2.1969   -0.0678    2.1059 H         1 <0>         0.1436
     52 H12         0.4657   -0.6742    3.7449 H         1 <0>         0.1357
     53 H13         1.6480   -4.7664    3.5061 H         1 <0>         0.1356
     54 H14         3.3781   -4.1811    1.8584 H         1 <0>         0.1427
     55 H15         0.2181   -3.9884    5.3013 H         1 <0>         0.1399
     56 H16        -0.2750   -2.2810    5.4012 H         1 <0>         0.1388
     57 H17        -2.0935   -1.4754    4.0800 H         1 <0>         0.1367
     58 H18        -1.0866   -1.8638    2.6652 H         1 <0>         0.1394
     59 H19        -3.4799   -1.6941    2.0366 H         1 <0>         0.1243
     60 H20        -2.8736   -3.3520    1.8023 H         1 <0>         0.0898
     61 H21        -4.4626   -2.3334    4.2030 H         1 <0>         0.1305
     62 H22        -4.3723   -4.6700    4.9775 H         1 <0>         0.1233
     63 H23        -3.4048   -5.1234    3.5529 H         1 <0>         0.0882
     64 H24        -1.9577   -4.7687    5.5360 H         1 <0>         0.1390
     65 H25        -2.5839   -3.1108    5.6963 H         1 <0>         0.1376
     66 H26        -9.1719   -4.8117    0.2683 H         1 <0>         0.1436
     67 H27       -11.3726   -3.9452   -0.4898 H         1 <0>         0.1455
     68 H28       -12.0197   -1.6277    0.1317 H         1 <0>         0.1449
     69 H29       -10.4760   -0.2596    1.4727 H         1 <0>         0.1667
     70 H30        -1.1838   -4.1650    3.3435 H         1 <0>         0.4221
@<TRIPOS>BOND
     1    1    6 ar
     2    1    2 ar
     3    1   42 1
     4    2    3 ar
     5    2   43 1
     6    3    4 ar
     7    3   44 1
     8    4    5 ar
     9    4    7 1
    10    5    6 ar
    11    5   45 1
    12    6   46 1
    13    7   16 ar
    14    7    8 ar
    15    8    9 ar
    16    8   47 1
    17    9   14 ar
    18    9   10 ar
    19   10   11 ar
    20   10   48 1
    21   11   12 ar
    22   11   49 1
    23   12   13 ar
    24   12   50 1
    25   13   14 ar
    26   14   15 ar
    27   15   16 ar
    28   16   17 1
    29   17   22 ar
    30   17   18 ar
    31   18   19 ar
    32   18   51 1
    33   19   20 ar
    34   19   52 1
    35   20   21 ar
    36   20   23 1
    37   21   22 ar
    38   21   53 1
    39   22   54 1
    40   23   24 1
    41   23   55 1
    42   23   56 1
    43   24   29 1
    44   24   25 1
    45   24   70 1
    46   25   26 1
    47   25   57 1
    48   25   58 1
    49   26   27 1
    50   26   59 1
    51   26   60 1
    52   27   28 1
    53   27   61 1
    54   27   30 1
    55   28   29 1
    56   28   62 1
    57   28   63 1
    58   29   64 1
    59   29   65 1
    60   30   31 2
    61   30   35 1
    62   31   32 1
    63   32   36 1
    64   32   33 2
    65   33   35 1
    66   34   35 1
    67   36   41 ar
    68   36   37 ar
    69   37   38 ar
    70   37   66 1
    71   38   39 ar
    72   38   67 1
    73   39   40 ar
    74   39   68 1
    75   40   41 ar
    76   40   69 1
@<TRIPOS>MOLECULE
CHEMBL253693
   71    77     0     0     0
SMALL
USER_CHARGES

@<TRIPOS>ATOM
      1 C1         -0.0225    1.8097    0.0120 C.3       1 <0>        -0.1490
      2 S1          0.0021   -0.0041    0.0020 S.3       1 <0>         0.0306
      3 C2          0.8767   -0.4266    1.4721 C.ar      1 <0>         0.3272
      4 N1          1.3174    0.5551    2.2576 N.ar      1 <0>        -0.5276
      5 C3          1.9766    0.3014    3.3689 C.ar      1 <0>         0.2401
      6 C4          2.2114   -1.0411    3.7185 C.ar      1 <0>        -0.2287
      7 C5          2.9053   -1.3920    4.8864 C.ar      1 <0>         0.0090
      8 C6          3.0909   -2.7406    5.1528 C.ar      1 <0>        -0.1093
      9 C7          2.5820   -3.7021    4.2518 C.ar      1 <0>         0.2469
     10 N2          1.9327   -3.3451    3.1593 N.ar      1 <0>        -0.4555
     11 C8          1.7278   -2.0628    2.8584 C.ar      1 <0>         0.3665
     12 N3          1.0636   -1.7028    1.7525 N.ar      1 <0>        -0.4844
     13 C9          2.7816   -5.1415    4.5386 C.ar      1 <0>        -0.0199
     14 C10         3.9528   -5.5760    5.1591 C.ar      1 <0>        -0.0761
     15 C11         4.1327   -6.9181    5.4241 C.ar      1 <0>        -0.1019
     16 C12         3.1545   -7.8322    5.0753 C.ar      1 <0>        -0.1461
     17 C13         1.9909   -7.4074    4.4592 C.ar      1 <0>        -0.0966
     18 C14         1.7967   -6.0672    4.1946 C.ar      1 <0>        -0.0682
     19 C15         3.3576   -9.2966    5.3671 C.3       1 <0>         0.0427
     20 N4          2.8280   -9.6080    6.7015 N.4       1 <0>        -0.3844
     21 C16         3.6083   -8.8894    7.7160 C.3       1 <0>        -0.0094
     22 C17         3.0105   -9.1461    9.1010 C.3       1 <0>        -0.1549
     23 C18         3.0469  -10.6483    9.3963 C.3       1 <0>         0.1692
     24 C19         2.2929  -11.3941    8.2915 C.3       1 <0>        -0.1572
     25 C20         2.9173  -11.0542    6.9364 C.3       1 <0>        -0.0013
     26 N5          2.4071  -10.9092   10.6881 N.pl3     1 <0>        -0.3879
     27 C21         3.0024  -11.4798   11.7735 C.ar      1 <0>         0.3770
     28 C22         2.0235  -11.5359   12.7849 C.ar      1 <0>        -0.3385
     29 C23         0.8425  -10.9789   12.2485 C.2       1 <0>         0.1248
     30 N6          1.0803  -10.6099   11.0222 N.2       1 <0>        -0.2621
     31 C24         2.3811  -12.0894   14.0294 C.ar      1 <0>         0.5246
     32 N7          3.6236  -12.5318   14.1900 N.ar      1 <0>        -0.6045
     33 C25         4.5081  -12.4581   13.2113 C.ar      1 <0>         0.4013
     34 N8          4.2215  -11.9497   12.0328 N.ar      1 <0>        -0.5849
     35 N9          1.4630  -12.1699   15.0579 N.pl3     1 <0>        -0.8137
     36 C26         3.8172   -3.1690    6.3720 C.ar      1 <0>        -0.0498
     37 C27         3.2649   -4.1343    7.2126 C.ar      1 <0>        -0.0995
     38 C28         3.9459   -4.5295    8.3460 C.ar      1 <0>        -0.1215
     39 C29         5.1740   -3.9694    8.6488 C.ar      1 <0>        -0.1085
     40 C30         5.7270   -3.0112    7.8184 C.ar      1 <0>        -0.1111
     41 C31         5.0579   -2.6123    6.6792 C.ar      1 <0>        -0.1026
     42 H1          1.0001    2.1870    0.0043 H         1 <0>         0.0934
     43 H2         -0.5497    2.1708   -0.8711 H         1 <0>         0.1178
     44 H3         -0.5327    2.1613    0.9088 H         1 <0>         0.0934
     45 H4          2.3293    1.1056    3.9977 H         1 <0>         0.1880
     46 H5          3.2838   -0.6351    5.5574 H         1 <0>         0.1577
     47 H6          4.7174   -4.8634    5.4312 H         1 <0>         0.1446
     48 H7          5.0391   -7.2558    5.9044 H         1 <0>         0.1363
     49 H8          1.2311   -8.1257    4.1890 H         1 <0>         0.1373
     50 H9          0.8860   -5.7362    3.7177 H         1 <0>         0.1439
     51 H10         2.8331   -9.8921    4.6199 H         1 <0>         0.1409
     52 H11         4.4220   -9.5292    5.3353 H         1 <0>         0.1389
     53 H12         4.6402   -9.2399    7.6955 H         1 <0>         0.1343
     54 H13         3.5841   -7.8208    7.5026 H         1 <0>         0.1398
     55 H14         3.5924   -8.6131    9.8530 H         1 <0>         0.1160
     56 H15         1.9786   -8.7957    9.1226 H         1 <0>         0.1018
     57 H16         4.0818  -10.9891    9.4253 H         1 <0>         0.1233
     58 H17         2.3618  -12.4680    8.4649 H         1 <0>         0.1173
     59 H18         1.2461  -11.0904    8.2963 H         1 <0>         0.1025
     60 H19         2.3830  -11.5837    6.1476 H         1 <0>         0.1398
     61 H20         3.9639  -11.3585    6.9326 H         1 <0>         0.1350
     62 H21        -0.0981  -10.8726   12.7686 H         1 <0>         0.1977
     63 H22         5.5069  -12.8297   13.3864 H         1 <0>         0.2083
     64 H23         0.5590  -11.8429   14.9278 H         1 <0>         0.4163
     65 H24         1.7220  -12.5534   15.9104 H         1 <0>         0.4177
     66 H25         2.3059   -4.5717    6.9776 H         1 <0>         0.1206
     67 H26         3.5191   -5.2772    8.9980 H         1 <0>         0.1220
     68 H27         5.7030   -4.2813    9.5372 H         1 <0>         0.1264
     69 H28         6.6860   -2.5771    8.0600 H         1 <0>         0.1307
     70 H29         5.4926   -1.8673    6.0293 H         1 <0>         0.1286
     71 H30         1.8628   -9.3186    6.7551 H         1 <0>         0.4246
@<TRIPOS>BOND
     1    1    2 1
     2    1   42 1
     3    1   43 1
     4    1   44 1
     5    2    3 1
     6    3   12 ar
     7    3    4 ar
     8    4    5 ar
     9    5    6 ar
    10    5   45 1
    11    6   11 ar
    12    6    7 ar
    13    7    8 ar
    14    7   46 1
    15    8    9 ar
    16    8   36 1
    17    9   10 ar
    18    9   13 1
    19   10   11 ar
    20   11   12 ar
    21   13   18 ar
    22   13   14 ar
    23   14   15 ar
    24   14   47 1
    25   15   16 ar
    26   15   48 1
    27   16   17 ar
    28   16   19 1
    29   17   18 ar
    30   17   49 1
    31   18   50 1
    32   19   20 1
    33   19   51 1
    34   19   52 1
    35   20   25 1
    36   20   21 1
    37   20   71 1
    38   21   22 1
    39   21   53 1
    40   21   54 1
    41   22   23 1
    42   22   55 1
    43   22   56 1
    44   23   24 1
    45   23   26 1
    46   23   57 1
    47   24   25 1
    48   24   58 1
    49   24   59 1
    50   25   60 1
    51   25   61 1
    52   26   30 1
    53   26   27 1
    54   27   34 ar
    55   27   28 ar
    56   28   29 1
    57   28   31 ar
    58   29   30 2
    59   29   62 1
    60   31   32 ar
    61   31   35 1
    62   32   33 ar
    63   33   34 ar
    64   33   63 1
    65   35   64 1
    66   35   65 1
    67   36   41 ar
    68   36   37 ar
    69   37   38 ar
    70   37   66 1
    71   38   39 ar
    72   38   67 1
    73   39   40 ar
    74   39   68 1
    75   40   41 ar
    76   40   69 1
    77   41   70 1
